 ****** HSPICE -- L-2016.06-SP1 linux64 (Aug 24 2016) ******                    
  Copyright (c) 1986 - 2021 by Synopsys, Inc. All Rights Reserved.              
  This software and the associated documentation are proprietary
  to Synopsys, Inc. This software may only be used in accordance
  with the terms and conditions of a written license agreement with
  Synopsys, Inc. All other use, reproduction, or distribution of
  this software is strictly prohibited.
  Input File: testbench/rram.sp                                                 
  Command line options: /usr/_synopsys/hspice/hspice/linux64/hspice -i testbench/rram.sp -o output/rram.lis
 lic:  
 lic: FLEXlm: v11.2.1 
 lic: USER:   jun                  HOSTNAME: DTFL-workstation 
 lic: HOSTID: "3cecef285064"       PID:      131803 
 lic: Using FLEXlm license file: 
 lic: 27000@DTFL-workstation 
 lic: Checkout 1 hspice 
 lic: License/Maintenance for hspice will expire on 12-dec-2030/2019.2019 
 lic: 1(in_use)/99(total) FLOATING license(s) on SERVER 27000@DTFL-workstation 
 lic:   
  **info** Monte Carlo simulation is detected, increase number of measure digits to 7 for Monte Carlo post processing.
1****** HSPICE -- L-2016.06-SP1 linux64 (Aug 24 2016) ******                    
 ******  
 * here we use hfox, which has 1e8 hrs and 1e4 lrs

 ****** circuit name directory
 circuit number to circuit name directory
   number circuitname                     definition         multiplier
        0 main circuit
        1 xrram.                          rram               1.00 
 ******  
 * here we use hfox, which has 1e8 hrs and 1e4 lrs

 ****** diode model parameters tnom=  25.000 temp=  25.000 ******
 ********************************************************
 *** common model parameters model name:   1:diode1  ****
 ********************************************************

     names  values   units     names  values   units     names  values   units
     -----  ------   -----     -----  ------   -----     -----  ------   -----

   1*** dc breakdown parameters ***
       vb=   0.    volts        ibv=   1.00m amps   

   2*** parasitic resistance parameters ***
       rs=   0.    ohms   

   3*** capacitance parameters ***
       fc= 500.00m              fcs= 500.00m                m= 500.00m        
     mjsw= 330.00m               pb= 800.00m volts        php= 800.00m volts  
       tt=   0.    secs         cjo=   0.    f/area       cjp=   0.    f/pj   

   4*** temperature effect parameters ***
     tlev=   0.               tlevc=   0.                 tcv=   0.    v/deg k
      trs=   0.    /deg         cta=   0.    /deg         ctp=   0.    /deg   
      xti=   3.00            xtitun=   3.00               keg=   1.00         
       eg=   1.11  ev          gap1= 702.00u  ev/deg     gap2=   1.11k  deg   
     ttt1=   0.    /deg        ttt2=   0.    /deg2        tm1=   0.    /deg   
      tm2=   0.    /deg2        tpb=   0.    v/deg k     tphp=   0.    v/deg k
     tref=  25.00   deg c 

   5*** noise parameters ***
       kf=   0.                  af=   1.00         

   ***  level   1  model parameters  ***

    level=   1.00                is=  10.00f amps         jsw=   0.    amps   
        n=   1.00               nbv=   1.00                ik=   0.    amp    
     area=   1.00                pj=   0.                 ikr=   0.    amp    
    expli=   0.    amps      explir=   0.    amps        jtun=   0.    amps   
   jtunsw=   0.    amps        ntun=  30.00         
  
*** info *** index=1 is a nominal sample in Monte Carlo.
*** info *** The MCG Random Number Generator and .Option Use_Agauss_Format = Yes are set as defaults starting with HSPICE L-2016.06 to address the needs of advanced technology nodes with large samples and/or large circuits, particularly for distributed processing.
*** Should you want backward compatibility, please use the following options:
For traditional Gaussian style variations, use .Option Random_Generator = 3LC;
For Variation Block style variations, use .Option Random_Generator = MOA.
  
      

MONTE CARLO DEFINITIONS


Option sampling_method was set, variation block and agauss format variation are in effect.

Random number generator is MCG            , and seed =      1, stream =   1
 *****************************************************************
 ******  option summary
 ******
 runlvl  = 3         bypass  = 2.0000    
  Opening plot unit= 15
 file=output/rram.pa0

 ******
 * here we use hfox, which has 1e8 hrs and 1e4 lrs

 ****** dc transfer curves tnom=  25.000 temp=  25.000 ******
 
   *** monte carlo  index = 1 ***
x

 volt         current   
             vdc        
    0.          0.      
   10.00000m  -14.7584f 
   20.00000m  -31.7811f 
   30.00000m  -52.1454f 
   40.00000m  -77.4416f 
   50.00000m -110.0163f 
   60.00000m -153.3330f 
   70.00000m -212.5031f 
   80.00000m -295.0705f 
   90.00000m -412.1684f 
  100.00000m -580.2280f 
  110.00000m -823.4989f 
  120.00000m   -1.1778p 
  130.00000m   -1.6959p 
  140.00000m   -2.4557p 
  150.00000m   -3.5724p 
  160.00000m   -5.2157p 
  170.00000m   -7.6361p 
  180.00000m  -11.2035p 
  190.00000m  -16.4637p 
  200.00000m  -24.2221p 
  210.00000m  -35.6675p 
  220.00000m  -52.5540p 
  230.00000m  -77.4708p 
  240.00000m -114.2383p 
  250.00000m -168.4946p 
  260.00000m -248.5595p 
  270.00000m -366.7087p 
  280.00000m -541.0536p 
  290.00000m -798.3112p 
  300.00000m   -1.1779n 
  310.00000m   -1.7379n 
  320.00000m   -2.5639n 
  330.00000m   -3.7819n 
  340.00000m   -5.5775n 
  350.00000m   -8.2228n 
  360.00000m  -12.1171n 
  370.00000m  -17.8429n 
  380.00000m  -26.2472n 
  390.00000m  -38.5514n 
  400.00000m  -56.4996n 
  410.00000m  -82.5433n 
  420.00000m -120.0549n 
  430.00000m -173.5320n 
  440.00000m -248.7193n 
  450.00000m -352.5334n 
  460.00000m -492.6654n 
  470.00000m -676.8066n 
  480.00000m -911.6164n 
  490.00000m   -1.2017u 
  500.00000m   -1.5492u 
  510.00000m   -1.9535u 
  520.00000m   -2.4119u 
  530.00000m   -2.9204u 
  540.00000m   -3.4743u 
  550.00000m   -4.0686u 
  560.00000m   -4.6986u 
  570.00000m   -5.3602u 
  580.00000m   -6.0494u 
  590.00000m   -6.7630u 
  600.00000m   -7.4979u 
  610.00000m   -8.2518u 
  620.00000m   -9.0224u 
  630.00000m   -9.8079u 
  640.00000m  -10.6068u 
  650.00000m  -11.4175u 
  660.00000m  -12.2390u 
  670.00000m  -13.0702u 
  680.00000m  -13.9102u 
  690.00000m  -14.7582u 
  700.00000m  -15.6134u 
  710.00000m  -16.4754u 
  720.00000m  -17.3434u 
  730.00000m  -18.2172u 
  740.00000m  -19.0961u 
  750.00000m  -19.9799u 
  760.00000m  -20.8681u 
  770.00000m  -21.7605u 
  780.00000m  -22.6568u 
  790.00000m  -23.5568u 
  800.00000m  -24.4601u 
  810.00000m  -25.3666u 
  820.00000m  -26.2761u 
  830.00000m  -27.1884u 
  840.00000m  -28.1034u 
  850.00000m  -29.0208u 
  860.00000m  -29.9407u 
  870.00000m  -30.8627u 
  880.00000m  -31.7869u 
  890.00000m  -32.7131u 
  900.00000m  -33.6413u 
  910.00000m  -34.5712u 
  920.00000m  -35.5029u 
  930.00000m  -36.4362u 
  940.00000m  -37.3711u 
  950.00000m  -38.3075u 
  960.00000m  -39.2454u 
  970.00000m  -40.1846u 
  980.00000m  -41.1252u 
  990.00000m  -42.0670u 
    1.00000   -43.0101u 
y
 
   *** monte carlo  index = 2 ***
x

 volt         current   
             vdc        
    0.       -131.3400f 
   10.00000m -182.2833f 
   20.00000m -252.7092f 
   30.00000m -351.8883f 
   40.00000m -493.5026f 
   50.00000m -697.7443f 
   60.00000m -994.4144f 
   70.00000m   -1.4275p 
   80.00000m   -2.0619p 
   90.00000m   -2.9934p 
  100.00000m   -4.3634p 
  110.00000m   -6.3806p 
  120.00000m   -9.3528p 
  130.00000m  -13.7346p 
  140.00000m  -20.1966p 
  150.00000m  -29.7287p 
  160.00000m  -43.7916p 
  170.00000m  -64.5413p 
  180.00000m  -95.1591p 
  190.00000m -140.3400p 
  200.00000m -207.0120p 
  210.00000m -305.3979p 
  220.00000m -450.5808p 
  230.00000m -664.8115p 
  240.00000m -980.9088p 
  250.00000m   -1.4473n 
  260.00000m   -2.1352n 
  270.00000m   -3.1498n 
  280.00000m   -4.6456n 
  290.00000m   -6.8498n 
  300.00000m  -10.0957n 
  310.00000m  -14.8704n 
  320.00000m  -21.8833n 
  330.00000m  -32.1606n 
  340.00000m  -47.1731n 
  350.00000m  -69.0008n 
  360.00000m -100.5286n 
  370.00000m -145.6498n 
  380.00000m -209.4189n 
  390.00000m -298.0588n 
  400.00000m -418.6981n 
  410.00000m -578.7547n 
  420.00000m -785.0132n 
  430.00000m   -1.0426u 
  440.00000m   -1.3544u 
  450.00000m   -1.7207u 
  460.00000m   -2.1395u 
  470.00000m   -2.6074u 
  480.00000m   -3.1199u 
  490.00000m   -3.6725u 
  500.00000m   -4.2607u 
  510.00000m   -4.8801u 
  520.00000m   -5.5271u 
  530.00000m   -6.1982u 
  540.00000m   -6.8905u 
  550.00000m   -7.6016u 
  560.00000m   -8.3294u 
  570.00000m   -9.0718u 
  580.00000m   -9.8275u 
  590.00000m  -10.5949u 
  600.00000m  -11.3728u 
  610.00000m  -12.1604u 
  620.00000m  -12.9565u 
  630.00000m  -13.7605u 
  640.00000m  -14.5717u 
  650.00000m  -15.3894u 
  660.00000m  -16.2131u 
  670.00000m  -17.0424u 
  680.00000m  -17.8767u 
  690.00000m  -18.7157u 
  700.00000m  -19.5592u 
  710.00000m  -20.4066u 
  720.00000m  -21.2579u 
  730.00000m  -22.1127u 
  740.00000m  -22.9708u 
  750.00000m  -23.8320u 
  760.00000m  -24.6961u 
  770.00000m  -25.5629u 
  780.00000m  -26.4323u 
  790.00000m  -27.3041u 
  800.00000m  -28.1783u 
  810.00000m  -29.0546u 
  820.00000m  -29.9329u 
  830.00000m  -30.8132u 
  840.00000m  -31.6954u 
  850.00000m  -32.5793u 
  860.00000m  -33.4649u 
  870.00000m  -34.3521u 
  880.00000m  -35.2408u 
  890.00000m  -36.1310u 
  900.00000m  -37.0225u 
  910.00000m  -37.9154u 
  920.00000m  -38.8096u 
  930.00000m  -39.7050u 
  940.00000m  -40.6015u 
  950.00000m  -41.4992u 
  960.00000m  -42.3980u 
  970.00000m  -43.2978u 
  980.00000m  -44.1986u 
  990.00000m  -45.1004u 
    1.00000   -46.0031u 
y
 
   *** monte carlo  index = 3 ***
x

 volt         current   
             vdc        
    0.         68.6609f 
   10.00000m   58.1940f 
   20.00000m   47.5048f 
   30.00000m   36.4878f 
   40.00000m   24.9867f 
   50.00000m   12.7714f 
   60.00000m -497.9895a 
   70.00000m  -15.3231f 
   80.00000m  -32.4443f 
   90.00000m  -52.9540f 
  100.00000m  -78.4646f 
  110.00000m -111.3559f 
  120.00000m -155.1397f 
  130.00000m -214.9994f 
  140.00000m -298.5843f 
  150.00000m -417.1840f 
  160.00000m -587.4600f 
  170.00000m -834.0021f 
  180.00000m   -1.1931p 
  190.00000m   -1.7183p 
  200.00000m   -2.4887p 
  210.00000m   -3.6209p 
  220.00000m   -5.2871p 
  230.00000m   -7.7413p 
  240.00000m  -11.3586p 
  250.00000m  -16.6924p 
  260.00000m  -24.5595p 
  270.00000m  -36.1653p 
  280.00000m  -53.2886p 
  290.00000m  -78.5548p 
  300.00000m -115.8382p 
  310.00000m -170.8563p 
  320.00000m -252.0460p 
  330.00000m -371.8568p 
  340.00000m -548.6572p 
  350.00000m -809.5456p 
  360.00000m   -1.1945n 
  370.00000m   -1.7624n 
  380.00000m   -2.6003n 
  390.00000m   -3.8359n 
  400.00000m   -5.6578n 
  410.00000m   -8.3428n 
  420.00000m  -12.2970n 
  430.00000m  -18.1148n 
  440.00000m  -26.6620n 
  450.00000m  -39.1926n 
  460.00000m  -57.5068n 
  470.00000m  -84.1561n 
  480.00000m -122.6915n 
  490.00000m -177.9273n 
  500.00000m -256.1547n 
  510.00000m -365.1884n 
  520.00000m -514.0889n 
  530.00000m -712.4357n 
  540.00000m -969.1826n 
  550.00000m   -1.2914u 
  560.00000m   -1.6831u 
  570.00000m   -2.1452u 
  580.00000m   -2.6756u 
  590.00000m   -3.2700u 
  600.00000m   -3.9230u 
  610.00000m   -4.6285u 
  620.00000m   -5.3806u 
  630.00000m   -6.1739u 
  640.00000m   -7.0033u 
  650.00000m   -7.8645u 
  660.00000m   -8.7536u 
  670.00000m   -9.6674u 
  680.00000m  -10.6029u 
  690.00000m  -11.5579u 
  700.00000m  -12.5300u 
  710.00000m  -13.5176u 
  720.00000m  -14.5191u 
  730.00000m  -15.5330u 
  740.00000m  -16.5583u 
  750.00000m  -17.5938u 
  760.00000m  -18.6387u 
  770.00000m  -19.6921u 
  780.00000m  -20.7534u 
  790.00000m  -21.8219u 
  800.00000m  -22.8970u 
  810.00000m  -23.9783u 
  820.00000m  -25.0653u 
  830.00000m  -26.1575u 
  840.00000m  -27.2547u 
  850.00000m  -28.3565u 
  860.00000m  -29.4627u 
  870.00000m  -30.5728u 
  880.00000m  -31.6867u 
  890.00000m  -32.8042u 
  900.00000m  -33.9250u 
  910.00000m  -35.0490u 
  920.00000m  -36.1759u 
  930.00000m  -37.3057u 
  940.00000m  -38.4382u 
  950.00000m  -39.5731u 
  960.00000m  -40.7105u 
  970.00000m  -41.8502u 
  980.00000m  -42.9921u 
  990.00000m  -44.1360u 
    1.00000   -45.2820u 
y
 
   *** monte carlo  index = 4 ***
x

 volt         current   
             vdc        
    0.        194.9389f 
   10.00000m  184.9354f 
   20.00000m  174.9301f 
   30.00000m  164.9224f 
   40.00000m  154.9109f 
   50.00000m  144.8941f 
   60.00000m  134.8692f 
   70.00000m  124.8324f 
   80.00000m  114.7782f 
   90.00000m  104.6981f 
  100.00000m   94.5799f 
  110.00000m   84.4055f 
  120.00000m   74.1481f 
  130.00000m   63.7683f 
  140.00000m   53.2077f 
  150.00000m   42.3804f 
  160.00000m   31.1593f 
  170.00000m   19.3573f 
  180.00000m    6.6977f 
  190.00000m   -7.2274f 
  200.00000m  -23.0202f 
  210.00000m  -41.5694f 
  220.00000m  -64.1868f 
  230.00000m  -92.8080f 
  240.00000m -130.2899f 
  250.00000m -180.8489f 
  260.00000m -250.7076f 
  270.00000m -349.0496f 
  280.00000m -489.4283f 
  290.00000m -691.8466f 
  300.00000m -985.8256f 
  310.00000m   -1.4149p 
  320.00000m   -2.0435p 
  330.00000m   -2.9663p 
  340.00000m   -4.3236p 
  350.00000m   -6.3219p 
  360.00000m   -9.2663p 
  370.00000m  -13.6070p 
  380.00000m  -20.0084p 
  390.00000m  -29.4511p 
  400.00000m  -43.3820p 
  410.00000m  -63.9367p 
  420.00000m  -94.2667p 
  430.00000m -139.0224p 
  440.00000m -205.0661p 
  450.00000m -302.5232p 
  460.00000m -446.3314p 
  470.00000m -658.5254p 
  480.00000m -971.5994p 
  490.00000m   -1.4335n 
  500.00000m   -2.1147n 
  510.00000m   -3.1191n 
  520.00000m   -4.5997n 
  530.00000m   -6.7805n 
  540.00000m   -9.9900n 
  550.00000m  -14.7072n 
  560.00000m  -21.6269n 
  570.00000m  -31.7491n 
  580.00000m  -46.4964n 
  590.00000m  -67.8587n 
  600.00000m  -98.5535n 
  610.00000m -142.1685n 
  620.00000m -203.2231n 
  630.00000m -287.0570n 
  640.00000m -399.4601n 
  650.00000m -546.0304n 
  660.00000m -731.3896n 
  670.00000m -958.5060n 
  680.00000m   -1.2284u 
  690.00000m   -1.5401u 
  700.00000m   -1.8914u 
  710.00000m   -2.2791u 
  720.00000m   -2.6995u 
  730.00000m   -3.1491u 
  740.00000m   -3.6245u 
  750.00000m   -4.1225u 
  760.00000m   -4.6404u 
  770.00000m   -5.1757u 
  780.00000m   -5.7265u 
  790.00000m   -6.2909u 
  800.00000m   -6.8674u 
  810.00000m   -7.4547u 
  820.00000m   -8.0515u 
  830.00000m   -8.6570u 
  840.00000m   -9.2703u 
  850.00000m   -9.8906u 
  860.00000m  -10.5173u 
  870.00000m  -11.1497u 
  880.00000m  -11.7875u 
  890.00000m  -12.4301u 
  900.00000m  -13.0772u 
  910.00000m  -13.7284u 
  920.00000m  -14.3835u 
  930.00000m  -15.0420u 
  940.00000m  -15.7038u 
  950.00000m  -16.3686u 
  960.00000m  -17.0363u 
  970.00000m  -17.7067u 
  980.00000m  -18.3795u 
  990.00000m  -19.0546u 
    1.00000   -19.7320u 
y
 
   *** monte carlo  index = 5 ***
x

 volt         current   
             vdc        
    0.         36.7562f 
   10.00000m   25.2691f 
   20.00000m   13.0743f 
   30.00000m -164.7957a 
   40.00000m  -14.9452f 
   50.00000m  -32.0004f 
   60.00000m  -52.4127f 
   70.00000m  -77.7796f 
   80.00000m -110.4587f 
   90.00000m -153.9294f 
  100.00000m -213.3270f 
  110.00000m -296.2299f 
  120.00000m -413.8232f 
  130.00000m -582.6138f 
  140.00000m -826.9636f 
  150.00000m   -1.1828p 
  160.00000m   -1.7033p 
  170.00000m   -2.4666p 
  180.00000m   -3.5884p 
  190.00000m   -5.2392p 
  200.00000m   -7.6708p 
  210.00000m  -11.2547p 
  220.00000m  -16.5392p 
  230.00000m  -24.3334p 
  240.00000m  -35.8317p 
  250.00000m  -52.7963p 
  260.00000m  -77.8283p 
  270.00000m -114.7660p 
  280.00000m -169.2737p 
  290.00000m -249.7097p 
  300.00000m -368.4072p 
  310.00000m -543.5626p 
  320.00000m -802.0192p 
  330.00000m   -1.1834n 
  340.00000m   -1.7460n 
  350.00000m   -2.5759n 
  360.00000m   -3.7998n 
  370.00000m   -5.6041n 
  380.00000m   -8.2627n 
  390.00000m  -12.1770n 
  400.00000m  -17.9339n 
  410.00000m  -26.3869n 
  420.00000m  -38.7691n 
  430.00000m  -56.8449n 
  440.00000m  -83.1028n 
  450.00000m -120.9815n 
  460.00000m -175.0967n 
  470.00000m -251.3972n 
  480.00000m -357.1331n 
  490.00000m -500.4987n 
  500.00000m -689.8689n 
  510.00000m -932.7165n 
  520.00000m   -1.2345u 
  530.00000m   -1.5980u 
  540.00000m   -2.0230u 
  550.00000m   -2.5071u 
  560.00000m   -3.0462u 
  570.00000m   -3.6350u 
  580.00000m   -4.2685u 
  590.00000m   -4.9415u 
  600.00000m   -5.6492u 
  610.00000m   -6.3875u 
  620.00000m   -7.1526u 
  630.00000m   -7.9414u 
  640.00000m   -8.7510u 
  650.00000m   -9.5791u 
  660.00000m  -10.4237u 
  670.00000m  -11.2828u 
  680.00000m  -12.1551u 
  690.00000m  -13.0392u 
  700.00000m  -13.9340u 
  710.00000m  -14.8384u 
  720.00000m  -15.7516u 
  730.00000m  -16.6727u 
  740.00000m  -17.6012u 
  750.00000m  -18.5364u 
  760.00000m  -19.4778u 
  770.00000m  -20.4249u 
  780.00000m  -21.3773u 
  790.00000m  -22.3346u 
  800.00000m  -23.2964u 
  810.00000m  -24.2625u 
  820.00000m  -25.2325u 
  830.00000m  -26.2063u 
  840.00000m  -27.1835u 
  850.00000m  -28.1640u 
  860.00000m  -29.1475u 
  870.00000m  -30.1340u 
  880.00000m  -31.1232u 
  890.00000m  -32.1149u 
  900.00000m  -33.1091u 
  910.00000m  -34.1056u 
  920.00000m  -35.1043u 
  930.00000m  -36.1051u 
  940.00000m  -37.1078u 
  950.00000m  -38.1125u 
  960.00000m  -39.1189u 
  970.00000m  -40.1271u 
  980.00000m  -41.1369u 
  990.00000m  -42.1483u 
    1.00000   -43.1611u 
y
 
   *** monte carlo  index = 6 ***
x

 volt         current   
             vdc        
    0.        -41.8607f 
   10.00000m  -64.5485f 
   20.00000m  -93.2738f 
   30.00000m -130.9093f 
   40.00000m -181.6949f 
   50.00000m -251.8880f 
   60.00000m -350.7236f 
   70.00000m -491.8307f 
   80.00000m -695.3242f 
   90.00000m -990.8898f 
  100.00000m   -1.4223p 
  110.00000m   -2.0543p 
  120.00000m   -2.9823p 
  130.00000m   -4.3471p 
  140.00000m   -6.3565p 
  150.00000m   -9.3173p 
  160.00000m  -13.6822p 
  170.00000m  -20.1194p 
  180.00000m  -29.6148p 
  190.00000m  -43.6236p 
  200.00000m  -64.2934p 
  210.00000m  -94.7934p 
  220.00000m -139.8004p 
  230.00000m -206.2159p 
  240.00000m -304.2237p 
  250.00000m -448.8489p 
  260.00000m -662.2581p 
  270.00000m -977.1457p 
  280.00000m   -1.4417n 
  290.00000m   -2.1270n 
  300.00000m   -3.1378n 
  310.00000m   -4.6280n 
  320.00000m   -6.8242n 
  330.00000m  -10.0584n 
  340.00000m  -14.8166n 
  350.00000m  -21.8064n 
  360.00000m  -32.0527n 
  370.00000m  -47.0255n 
  380.00000m  -68.8074n 
  390.00000m -100.2933n 
  400.00000m -145.4023n 
  410.00000m -209.2458n 
  420.00000m -298.1547n 
  430.00000m -419.4413n 
  440.00000m -580.7987n 
  450.00000m -789.3682n 
  460.00000m   -1.0507u 
  470.00000m   -1.3680u 
  480.00000m   -1.7418u 
  490.00000m   -2.1703u 
  500.00000m   -2.6500u 
  510.00000m   -3.1765u 
  520.00000m   -3.7450u 
  530.00000m   -4.3507u 
  540.00000m   -4.9892u 
  550.00000m   -5.6567u 
  560.00000m   -6.3494u 
  570.00000m   -7.0645u 
  580.00000m   -7.7993u 
  590.00000m   -8.5514u 
  600.00000m   -9.3191u 
  610.00000m  -10.1005u 
  620.00000m  -10.8942u 
  630.00000m  -11.6990u 
  640.00000m  -12.5138u 
  650.00000m  -13.3376u 
  660.00000m  -14.1697u 
  670.00000m  -15.0092u 
  680.00000m  -15.8555u 
  690.00000m  -16.7082u 
  700.00000m  -17.5666u 
  710.00000m  -18.4303u 
  720.00000m  -19.2989u 
  730.00000m  -20.1721u 
  740.00000m  -21.0496u 
  750.00000m  -21.9310u 
  760.00000m  -22.8160u 
  770.00000m  -23.7045u 
  780.00000m  -24.5963u 
  790.00000m  -25.4910u 
  800.00000m  -26.3887u 
  810.00000m  -27.2890u 
  820.00000m  -28.1918u 
  830.00000m  -29.0970u 
  840.00000m  -30.0045u 
  850.00000m  -30.9141u 
  860.00000m  -31.8257u 
  870.00000m  -32.7393u 
  880.00000m  -33.6547u 
  890.00000m  -34.5719u 
  900.00000m  -35.4907u 
  910.00000m  -36.4111u 
  920.00000m  -37.3330u 
  930.00000m  -38.2564u 
  940.00000m  -39.1811u 
  950.00000m  -40.1072u 
  960.00000m  -41.0346u 
  970.00000m  -41.9631u 
  980.00000m  -42.8929u 
  990.00000m  -43.8238u 
    1.00000   -44.7557u 
y
 
   *** monte carlo  index = 7 ***
x

 volt         current   
             vdc        
    0.        -18.3989f 
   10.00000m  -36.0716f 
   20.00000m  -57.3953f 
   30.00000m  -84.1073f 
   40.00000m -118.7716f 
   50.00000m -165.1721f 
   60.00000m -228.8936f 
   70.00000m -318.1779f 
   80.00000m -445.1891f 
   90.00000m -627.8790f 
  100.00000m -892.7421f 
  110.00000m   -1.2789p 
  120.00000m   -1.8440p 
  130.00000m   -2.6733p 
  140.00000m   -3.8924p 
  150.00000m   -5.6868p 
  160.00000m   -8.3304p 
  170.00000m  -12.2271p 
  180.00000m  -17.9732p 
  190.00000m  -26.4488p 
  200.00000m  -38.9526p 
  210.00000m  -57.4012p 
  220.00000m  -84.6232p 
  230.00000m -124.7927p 
  240.00000m -184.0693p 
  250.00000m -271.5423p 
  260.00000m -400.6226p 
  270.00000m -591.0953p 
  280.00000m -872.1444p 
  290.00000m   -1.2868n 
  300.00000m   -1.8985n 
  310.00000m   -2.8008n 
  320.00000m   -4.1311n 
  330.00000m   -6.0919n 
  340.00000m   -8.9801n 
  350.00000m  -13.2302n 
  360.00000m  -19.4763n 
  370.00000m  -28.6374n 
  380.00000m  -42.0356n 
  390.00000m  -61.5500n 
  400.00000m  -89.8054n 
  410.00000m -130.3806n 
  420.00000m -187.9883n 
  430.00000m -268.5449n 
  440.00000m -379.0083n 
  450.00000m -526.8763n 
  460.00000m -719.3390n 
  470.00000m -962.2614n 
  480.00000m   -1.2593u 
  490.00000m   -1.6117u 
  500.00000m   -2.0180u 
  510.00000m   -2.4753u 
  520.00000m   -2.9793u 
  530.00000m   -3.5254u 
  540.00000m   -4.1089u 
  550.00000m   -4.7254u 
  560.00000m   -5.3710u 
  570.00000m   -6.0421u 
  580.00000m   -6.7356u 
  590.00000m   -7.4489u 
  600.00000m   -8.1797u 
  610.00000m   -8.9260u 
  620.00000m   -9.6861u 
  630.00000m  -10.4586u 
  640.00000m  -11.2421u 
  650.00000m  -12.0356u 
  660.00000m  -12.8382u 
  670.00000m  -13.6489u 
  680.00000m  -14.4672u 
  690.00000m  -15.2922u 
  700.00000m  -16.1235u 
  710.00000m  -16.9605u 
  720.00000m  -17.8028u 
  730.00000m  -18.6500u 
  740.00000m  -19.5017u 
  750.00000m  -20.3577u 
  760.00000m  -21.2175u 
  770.00000m  -22.0810u 
  780.00000m  -22.9480u 
  790.00000m  -23.8181u 
  800.00000m  -24.6912u 
  810.00000m  -25.5672u 
  820.00000m  -26.4458u 
  830.00000m  -27.3269u 
  840.00000m  -28.2103u 
  850.00000m  -29.0960u 
  860.00000m  -29.9839u 
  870.00000m  -30.8737u 
  880.00000m  -31.7654u 
  890.00000m  -32.6590u 
  900.00000m  -33.5542u 
  910.00000m  -34.4512u 
  920.00000m  -35.3496u 
  930.00000m  -36.2496u 
  940.00000m  -37.1510u 
  950.00000m  -38.0538u 
  960.00000m  -38.9579u 
  970.00000m  -39.8632u 
  980.00000m  -40.7697u 
  990.00000m  -41.6774u 
    1.00000   -42.5862u 
y
 
   *** monte carlo  index = 8 ***
x

 volt         current   
             vdc        
    0.         52.8892f 
   10.00000m   42.0522f 
   20.00000m   30.8169f 
   30.00000m   18.9938f 
   40.00000m    6.3032f 
   50.00000m   -7.6677f 
   60.00000m  -23.5281f 
   70.00000m  -42.1771f 
   80.00000m  -64.9418f 
   90.00000m  -93.7804f 
  100.00000m -131.5831f 
  110.00000m -182.6156f 
  120.00000m -253.1731f 
  130.00000m -352.5463f 
  140.00000m -494.4470f 
  150.00000m -699.1116f 
  160.00000m -996.4057f 
  170.00000m   -1.4304p 
  180.00000m   -2.0662p 
  190.00000m   -2.9997p 
  200.00000m   -4.3726p 
  210.00000m   -6.3942p 
  220.00000m   -9.3728p 
  230.00000m  -13.7641p 
  240.00000m  -20.2402p 
  250.00000m  -29.7929p 
  260.00000m  -43.8864p 
  270.00000m  -64.6810p 
  280.00000m  -95.3651p 
  290.00000m -140.6434p 
  300.00000m -207.4587p 
  310.00000m -306.0547p 
  320.00000m -451.5448p 
  330.00000m -666.2226p 
  340.00000m -982.9662p 
  350.00000m   -1.4502n 
  360.00000m   -2.1395n 
  370.00000m   -3.1558n 
  380.00000m   -4.6540n 
  390.00000m   -6.8610n 
  400.00000m  -10.1095n 
  410.00000m  -14.8852n 
  420.00000m  -21.8929n 
  430.00000m  -32.1489n 
  440.00000m  -47.1014n 
  450.00000m  -68.7820n 
  460.00000m  -99.9766n 
  470.00000m -144.3843n 
  480.00000m -206.7016n 
  490.00000m -292.5366n 
  500.00000m -408.0573n 
  510.00000m -559.3422n 
  520.00000m -751.5470n 
  530.00000m -988.1441n 
  540.00000m   -1.2705u 
  550.00000m   -1.5980u 
  560.00000m   -1.9683u 
  570.00000m   -2.3780u 
  580.00000m   -2.8235u 
  590.00000m   -3.3008u 
  600.00000m   -3.8061u 
  610.00000m   -4.3362u 
  620.00000m   -4.8880u 
  630.00000m   -5.4589u 
  640.00000m   -6.0466u 
  650.00000m   -6.6491u 
  660.00000m   -7.2648u 
  670.00000m   -7.8923u 
  680.00000m   -8.5302u 
  690.00000m   -9.1775u 
  700.00000m   -9.8333u 
  710.00000m  -10.4966u 
  720.00000m  -11.1670u 
  730.00000m  -11.8436u 
  740.00000m  -12.5260u 
  750.00000m  -13.2136u 
  760.00000m  -13.9061u 
  770.00000m  -14.6030u 
  780.00000m  -15.3041u 
  790.00000m  -16.0090u 
  800.00000m  -16.7174u 
  810.00000m  -17.4291u 
  820.00000m  -18.1439u 
  830.00000m  -18.8615u 
  840.00000m  -19.5819u 
  850.00000m  -20.3047u 
  860.00000m  -21.0299u 
  870.00000m  -21.7574u 
  880.00000m  -22.4869u 
  890.00000m  -23.2185u 
  900.00000m  -23.9519u 
  910.00000m  -24.6870u 
  920.00000m  -25.4239u 
  930.00000m  -26.1623u 
  940.00000m  -26.9023u 
  950.00000m  -27.6437u 
  960.00000m  -28.3865u 
  970.00000m  -29.1306u 
  980.00000m  -29.8760u 
  990.00000m  -30.6225u 
    1.00000   -31.3702u 
y

          ***** job concluded
 ******  
 * here we use hfox, which has 1e8 hrs and 1e4 lrs

 ****** job statistics summary tnom=  25.000 temp=  25.000 ******
  
  
 ******  Machine Information  ******
 CPU:
 model name	: Intel(R) Xeon(R) Silver 4210R CPU @ 2.40GHz
 cpu MHz	: 1000.048
  
 OS:
 Linux version 3.10.0-1160.25.1.el7.x86_64 (mockbuild@kbuilder.bsys.centos.org) (gcc version 4.8.5 20150623 (Red Hat 4.8.5-44) (GCC) ) #1 SMP Wed Apr 28 21:49:45 UTC 2021


  ******  HSPICE Threads Information  ******

  Command Line Threads Count :     1
  Available CPU Count        :    40
  Actual Threads Count       :     1


  ******  Circuit Statistics  ******
  # nodes       =       4 # elements   =       4
  # resistors   =       1 # capacitors =       0 # inductors   =       0
  # mutual_inds =       0 # vccs       =       0 # vcvs        =       0
  # cccs        =       0 # ccvs       =       0 # volt_srcs   =       2
  # curr_srcs   =       0 # diodes     =       1 # bjts        =       0
  # jfets       =       0 # mosfets    =       0 # U elements  =       0
  # T elements  =       0 # W elements =       0 # B elements  =       0
  # S elements  =       0 # P elements =       0 # va device   =       0
  # vector_srcs =       0 # N elements =       0


  ******  Runtime Statistics (seconds)  ******

  analysis           time    # points   tot. iter  conv.iter
  op point           0.00           1           0
  dc sweep           0.06         808        1805
  readin             0.01
  errchk             0.01
  setup              0.00
  output             0.00


           peak memory used        236.50 megabytes
           total cpu time            0.09 seconds
           total elapsed time        0.20 seconds
           job started at     21:38:59 06/20/2021
           job ended   at     21:38:59 06/20/2021


 lic: Release hspice token(s) 
 lic: total license checkout elapse time:        0.14(s)
