****** HSPICE -- L-2016.06-SP1 linux64 (Aug 24 2016) ******
 Input File: testbench/rram.sp
 lic:
 lic: FLEXlm: v11.2.1
 lic: USER:   jun                  HOSTNAME: DTFL-workstation
 lic: HOSTID: "3cecef285064"       PID:      136302
 lic: Using FLEXlm license file:
 lic: 27000@DTFL-workstation
 lic: Checkout 1 hspice
 lic: License/Maintenance for hspice will expire on 12-dec-2030/2019.2019
 lic: 1(in_use)/99(total) FLOATING license(s) on SERVER 27000@DTFL-workstation
 lic:
 init: begin read circuit files,  cpu clock=  1.60E-01
       option search = /usr/_synopsys/hspice/hspice/parts/ad
       option search = /usr/_synopsys/hspice/hspice/parts/behave
       option search = /usr/_synopsys/hspice/hspice/parts/bjt
       option search = /usr/_synopsys/hspice/hspice/parts/burr_brn
       option search = /usr/_synopsys/hspice/hspice/parts/comlinear
       option search = /usr/_synopsys/hspice/hspice/parts/dio
       option search = /usr/_synopsys/hspice/hspice/parts/fet
       option search = /usr/_synopsys/hspice/hspice/parts/lin_tech
       option search = /usr/_synopsys/hspice/hspice/parts/pci
       option search = /usr/_synopsys/hspice/hspice/parts/signet
       option search = /usr/_synopsys/hspice/hspice/parts/ti
       option search = /usr/_synopsys/hspice/hspice/parts/tline
       option search = /usr/_synopsys/hspice/hspice/parts/xilinx
       option runlvl
       option post = ascii
 init: end read circuit files,  cpu clock=  1.60E-01 peak memory=       235 mb
 init: begin check errors,  cpu clock=  1.60E-01
 init: end check errors,  cpu clock=  2.70E-01 peak memory=       235 mb
 init: begin setup matrix, pivot=     0 cpu clock=  2.70E-01
       establish matrix -- done,  cpu clock=  2.70E-01 peak memory=       235 mb
       re-order matrix -- done,  cpu clock=  2.70E-01 peak memory=       235 mb
 init: end setup matrix,  cpu clock=  2.70E-01 peak memory=       235 mb
 sweep: monte_carlo     monte_carlo1     begin, #sweeps =****
 output: output/rram.sp.sw0
 sweep: dc dc1    begin, #sweeps= 101 cpu clock=  2.70E-01
 sweep: dc dc1    end,  cpu clock=  2.70E-01 peak memory=       235 mb
 output: output/rram.sp.sw0
 sweep: dc dc2    begin, #sweeps= 101 cpu clock=  2.80E-01
 sweep: dc dc2    end,  cpu clock=  2.80E-01 peak memory=       235 mb
 output: output/rram.sp.sw0
 sweep: dc dc3    begin, #sweeps= 101 cpu clock=  2.80E-01
 sweep: dc dc3    end,  cpu clock=  2.90E-01 peak memory=       235 mb
 output: output/rram.sp.sw0
 sweep: dc dc4    begin, #sweeps= 101 cpu clock=  2.90E-01
 sweep: dc dc4    end,  cpu clock=  2.90E-01 peak memory=       235 mb
 output: output/rram.sp.sw0
 sweep: dc dc5    begin, #sweeps= 101 cpu clock=  3.00E-01
 sweep: dc dc5    end,  cpu clock=  3.00E-01 peak memory=       235 mb
 output: output/rram.sp.sw0
 sweep: dc dc6    begin, #sweeps= 101 cpu clock=  3.00E-01
 sweep: dc dc6    end,  cpu clock=  3.10E-01 peak memory=       235 mb
 output: output/rram.sp.sw0
 sweep: dc dc7    begin, #sweeps= 101 cpu clock=  3.10E-01
 sweep: dc dc7    end,  cpu clock=  3.10E-01 peak memory=       235 mb
 output: output/rram.sp.sw0
 sweep: dc dc8    begin, #sweeps= 101 cpu clock=  3.10E-01
 sweep: dc dc8    end,  cpu clock=  3.20E-01 peak memory=       235 mb
 output: output/rram.sp.sw0
 sweep: dc dc9    begin, #sweeps= 101 cpu clock=  3.20E-01
 sweep: dc dc9    end,  cpu clock=  3.20E-01 peak memory=       235 mb
 output: output/rram.sp.sw0
 sweep: dc dc10   begin, #sweeps= 101 cpu clock=  3.20E-01
 sweep: dc dc10   end,  cpu clock=  3.30E-01 peak memory=       235 mb
 output: output/rram.sp.sw0
 sweep: dc dc11   begin, #sweeps= 101 cpu clock=  3.30E-01
 sweep: dc dc11   end,  cpu clock=  3.30E-01 peak memory=       235 mb
 output: output/rram.sp.sw0
 sweep: dc dc12   begin, #sweeps= 101 cpu clock=  3.40E-01
 sweep: dc dc12   end,  cpu clock=  3.40E-01 peak memory=       235 mb
 output: output/rram.sp.sw0
 sweep: dc dc13   begin, #sweeps= 101 cpu clock=  3.40E-01
 sweep: dc dc13   end,  cpu clock=  3.50E-01 peak memory=       235 mb
 output: output/rram.sp.sw0
 sweep: dc dc14   begin, #sweeps= 101 cpu clock=  3.50E-01
 sweep: dc dc14   end,  cpu clock=  3.50E-01 peak memory=       235 mb
 output: output/rram.sp.sw0
 sweep: dc dc15   begin, #sweeps= 101 cpu clock=  3.50E-01
 sweep: dc dc15   end,  cpu clock=  3.60E-01 peak memory=       235 mb
 output: output/rram.sp.sw0
 sweep: dc dc16   begin, #sweeps= 101 cpu clock=  3.60E-01
 sweep: dc dc16   end,  cpu clock=  3.60E-01 peak memory=       235 mb
 output: output/rram.sp.sw0
 sweep: dc dc17   begin, #sweeps= 101 cpu clock=  3.70E-01
 sweep: dc dc17   end,  cpu clock=  3.70E-01 peak memory=       235 mb
 output: output/rram.sp.sw0
 sweep: dc dc18   begin, #sweeps= 101 cpu clock=  3.70E-01
 sweep: dc dc18   end,  cpu clock=  3.80E-01 peak memory=       235 mb
 output: output/rram.sp.sw0
 sweep: dc dc19   begin, #sweeps= 101 cpu clock=  3.80E-01
 sweep: dc dc19   end,  cpu clock=  3.80E-01 peak memory=       235 mb
 output: output/rram.sp.sw0
 sweep: dc dc20   begin, #sweeps= 101 cpu clock=  3.80E-01
 sweep: dc dc20   end,  cpu clock=  3.90E-01 peak memory=       235 mb
 output: output/rram.sp.sw0
 sweep: dc dc21   begin, #sweeps= 101 cpu clock=  3.90E-01
 sweep: dc dc21   end,  cpu clock=  3.90E-01 peak memory=       235 mb
 output: output/rram.sp.sw0
 sweep: dc dc22   begin, #sweeps= 101 cpu clock=  3.90E-01
 sweep: dc dc22   end,  cpu clock=  4.00E-01 peak memory=       235 mb
 output: output/rram.sp.sw0
 sweep: dc dc23   begin, #sweeps= 101 cpu clock=  4.00E-01
 sweep: dc dc23   end,  cpu clock=  4.00E-01 peak memory=       235 mb
 output: output/rram.sp.sw0
 sweep: dc dc24   begin, #sweeps= 101 cpu clock=  4.00E-01
 sweep: dc dc24   end,  cpu clock=  4.00E-01 peak memory=       235 mb
 output: output/rram.sp.sw0
 sweep: dc dc25   begin, #sweeps= 101 cpu clock=  4.10E-01
 sweep: dc dc25   end,  cpu clock=  4.10E-01 peak memory=       235 mb
 output: output/rram.sp.sw0
 sweep: dc dc26   begin, #sweeps= 101 cpu clock=  4.10E-01
 sweep: dc dc26   end,  cpu clock=  4.20E-01 peak memory=       235 mb
 output: output/rram.sp.sw0
 sweep: dc dc27   begin, #sweeps= 101 cpu clock=  4.20E-01
 sweep: dc dc27   end,  cpu clock=  4.20E-01 peak memory=       235 mb
 output: output/rram.sp.sw0
 sweep: dc dc28   begin, #sweeps= 101 cpu clock=  4.20E-01
 sweep: dc dc28   end,  cpu clock=  4.30E-01 peak memory=       235 mb
 output: output/rram.sp.sw0
 sweep: dc dc29   begin, #sweeps= 101 cpu clock=  4.30E-01
 sweep: dc dc29   end,  cpu clock=  4.30E-01 peak memory=       235 mb
 output: output/rram.sp.sw0
 sweep: dc dc30   begin, #sweeps= 101 cpu clock=  4.30E-01
 sweep: dc dc30   end,  cpu clock=  4.40E-01 peak memory=       235 mb
 output: output/rram.sp.sw0
 sweep: dc dc31   begin, #sweeps= 101 cpu clock=  4.40E-01
 sweep: dc dc31   end,  cpu clock=  4.40E-01 peak memory=       235 mb
 output: output/rram.sp.sw0
 sweep: dc dc32   begin, #sweeps= 101 cpu clock=  4.40E-01
 sweep: dc dc32   end,  cpu clock=  4.50E-01 peak memory=       235 mb
 output: output/rram.sp.sw0
 sweep: dc dc33   begin, #sweeps= 101 cpu clock=  4.50E-01
 sweep: dc dc33   end,  cpu clock=  4.50E-01 peak memory=       235 mb
 output: output/rram.sp.sw0
 sweep: dc dc34   begin, #sweeps= 101 cpu clock=  4.50E-01
 sweep: dc dc34   end,  cpu clock=  4.60E-01 peak memory=       235 mb
 output: output/rram.sp.sw0
 sweep: dc dc35   begin, #sweeps= 101 cpu clock=  4.60E-01
 sweep: dc dc35   end,  cpu clock=  4.60E-01 peak memory=       235 mb
 output: output/rram.sp.sw0
 sweep: dc dc36   begin, #sweeps= 101 cpu clock=  4.60E-01
 sweep: dc dc36   end,  cpu clock=  4.70E-01 peak memory=       235 mb
 output: output/rram.sp.sw0
 sweep: dc dc37   begin, #sweeps= 101 cpu clock=  4.70E-01
 sweep: dc dc37   end,  cpu clock=  4.70E-01 peak memory=       235 mb
 output: output/rram.sp.sw0
 sweep: dc dc38   begin, #sweeps= 101 cpu clock=  4.70E-01
 sweep: dc dc38   end,  cpu clock=  4.80E-01 peak memory=       235 mb
 output: output/rram.sp.sw0
 sweep: dc dc39   begin, #sweeps= 101 cpu clock=  4.80E-01
 sweep: dc dc39   end,  cpu clock=  4.80E-01 peak memory=       235 mb
 output: output/rram.sp.sw0
 sweep: dc dc40   begin, #sweeps= 101 cpu clock=  4.80E-01
 sweep: dc dc40   end,  cpu clock=  4.90E-01 peak memory=       235 mb
 output: output/rram.sp.sw0
 sweep: dc dc41   begin, #sweeps= 101 cpu clock=  4.90E-01
 sweep: dc dc41   end,  cpu clock=  4.90E-01 peak memory=       235 mb
 output: output/rram.sp.sw0
 sweep: dc dc42   begin, #sweeps= 101 cpu clock=  5.00E-01
 sweep: dc dc42   end,  cpu clock=  5.00E-01 peak memory=       235 mb
 output: output/rram.sp.sw0
 sweep: dc dc43   begin, #sweeps= 101 cpu clock=  5.00E-01
 sweep: dc dc43   end,  cpu clock=  5.00E-01 peak memory=       235 mb
 output: output/rram.sp.sw0
 sweep: dc dc44   begin, #sweeps= 101 cpu clock=  5.10E-01
 sweep: dc dc44   end,  cpu clock=  5.10E-01 peak memory=       235 mb
 output: output/rram.sp.sw0
 sweep: dc dc45   begin, #sweeps= 101 cpu clock=  5.10E-01
 sweep: dc dc45   end,  cpu clock=  5.20E-01 peak memory=       235 mb
 output: output/rram.sp.sw0
 sweep: dc dc46   begin, #sweeps= 101 cpu clock=  5.20E-01
 sweep: dc dc46   end,  cpu clock=  5.20E-01 peak memory=       235 mb
 output: output/rram.sp.sw0
 sweep: dc dc47   begin, #sweeps= 101 cpu clock=  5.20E-01
 sweep: dc dc47   end,  cpu clock=  5.30E-01 peak memory=       235 mb
 output: output/rram.sp.sw0
 sweep: dc dc48   begin, #sweeps= 101 cpu clock=  5.30E-01
 sweep: dc dc48   end,  cpu clock=  5.30E-01 peak memory=       235 mb
 output: output/rram.sp.sw0
 sweep: dc dc49   begin, #sweeps= 101 cpu clock=  5.30E-01
 sweep: dc dc49   end,  cpu clock=  5.40E-01 peak memory=       235 mb
 output: output/rram.sp.sw0
 sweep: dc dc50   begin, #sweeps= 101 cpu clock=  5.40E-01
 sweep: dc dc50   end,  cpu clock=  5.40E-01 peak memory=       235 mb
 output: output/rram.sp.sw0
 sweep: dc dc51   begin, #sweeps= 101 cpu clock=  5.40E-01
 sweep: dc dc51   end,  cpu clock=  5.50E-01 peak memory=       235 mb
 output: output/rram.sp.sw0
 sweep: dc dc52   begin, #sweeps= 101 cpu clock=  5.50E-01
 sweep: dc dc52   end,  cpu clock=  5.50E-01 peak memory=       235 mb
 output: output/rram.sp.sw0
 sweep: dc dc53   begin, #sweeps= 101 cpu clock=  5.50E-01
 sweep: dc dc53   end,  cpu clock=  5.60E-01 peak memory=       235 mb
 output: output/rram.sp.sw0
 sweep: dc dc54   begin, #sweeps= 101 cpu clock=  5.60E-01
 sweep: dc dc54   end,  cpu clock=  5.60E-01 peak memory=       235 mb
 output: output/rram.sp.sw0
 sweep: dc dc55   begin, #sweeps= 101 cpu clock=  5.60E-01
 sweep: dc dc55   end,  cpu clock=  5.70E-01 peak memory=       235 mb
 output: output/rram.sp.sw0
 sweep: dc dc56   begin, #sweeps= 101 cpu clock=  5.70E-01
 sweep: dc dc56   end,  cpu clock=  5.70E-01 peak memory=       235 mb
 output: output/rram.sp.sw0
 sweep: dc dc57   begin, #sweeps= 101 cpu clock=  5.70E-01
 sweep: dc dc57   end,  cpu clock=  5.80E-01 peak memory=       235 mb
 output: output/rram.sp.sw0
 sweep: dc dc58   begin, #sweeps= 101 cpu clock=  5.80E-01
 sweep: dc dc58   end,  cpu clock=  5.80E-01 peak memory=       235 mb
 output: output/rram.sp.sw0
 sweep: dc dc59   begin, #sweeps= 101 cpu clock=  5.80E-01
 sweep: dc dc59   end,  cpu clock=  5.90E-01 peak memory=       235 mb
 output: output/rram.sp.sw0
 sweep: dc dc60   begin, #sweeps= 101 cpu clock=  5.90E-01
 sweep: dc dc60   end,  cpu clock=  5.90E-01 peak memory=       235 mb
 output: output/rram.sp.sw0
 sweep: dc dc61   begin, #sweeps= 101 cpu clock=  5.90E-01
 sweep: dc dc61   end,  cpu clock=  6.00E-01 peak memory=       235 mb
 output: output/rram.sp.sw0
 sweep: dc dc62   begin, #sweeps= 101 cpu clock=  6.00E-01
 sweep: dc dc62   end,  cpu clock=  6.00E-01 peak memory=       235 mb
 output: output/rram.sp.sw0
 sweep: dc dc63   begin, #sweeps= 101 cpu clock=  6.00E-01
 sweep: dc dc63   end,  cpu clock=  6.10E-01 peak memory=       235 mb
 output: output/rram.sp.sw0
 sweep: dc dc64   begin, #sweeps= 101 cpu clock=  6.10E-01
 sweep: dc dc64   end,  cpu clock=  6.10E-01 peak memory=       235 mb
 output: output/rram.sp.sw0
 sweep: dc dc65   begin, #sweeps= 101 cpu clock=  6.10E-01
 sweep: dc dc65   end,  cpu clock=  6.20E-01 peak memory=       235 mb
 output: output/rram.sp.sw0
 sweep: dc dc66   begin, #sweeps= 101 cpu clock=  6.20E-01
 sweep: dc dc66   end,  cpu clock=  6.20E-01 peak memory=       235 mb
 output: output/rram.sp.sw0
 sweep: dc dc67   begin, #sweeps= 101 cpu clock=  6.20E-01
 sweep: dc dc67   end,  cpu clock=  6.30E-01 peak memory=       235 mb
 output: output/rram.sp.sw0
 sweep: dc dc68   begin, #sweeps= 101 cpu clock=  6.30E-01
 sweep: dc dc68   end,  cpu clock=  6.30E-01 peak memory=       235 mb
 output: output/rram.sp.sw0
 sweep: dc dc69   begin, #sweeps= 101 cpu clock=  6.30E-01
 sweep: dc dc69   end,  cpu clock=  6.40E-01 peak memory=       235 mb
 output: output/rram.sp.sw0
 sweep: dc dc70   begin, #sweeps= 101 cpu clock=  6.40E-01
 sweep: dc dc70   end,  cpu clock=  6.40E-01 peak memory=       235 mb
 output: output/rram.sp.sw0
 sweep: dc dc71   begin, #sweeps= 101 cpu clock=  6.40E-01
 sweep: dc dc71   end,  cpu clock=  6.50E-01 peak memory=       235 mb
 output: output/rram.sp.sw0
 sweep: dc dc72   begin, #sweeps= 101 cpu clock=  6.50E-01
 sweep: dc dc72   end,  cpu clock=  6.50E-01 peak memory=       235 mb
 output: output/rram.sp.sw0
 sweep: dc dc73   begin, #sweeps= 101 cpu clock=  6.50E-01
 sweep: dc dc73   end,  cpu clock=  6.60E-01 peak memory=       235 mb
 output: output/rram.sp.sw0
 sweep: dc dc74   begin, #sweeps= 101 cpu clock=  6.60E-01
 sweep: dc dc74   end,  cpu clock=  6.60E-01 peak memory=       235 mb
 output: output/rram.sp.sw0
 sweep: dc dc75   begin, #sweeps= 101 cpu clock=  6.70E-01
 sweep: dc dc75   end,  cpu clock=  6.70E-01 peak memory=       235 mb
 output: output/rram.sp.sw0
 sweep: dc dc76   begin, #sweeps= 101 cpu clock=  6.70E-01
 sweep: dc dc76   end,  cpu clock=  6.70E-01 peak memory=       235 mb
 output: output/rram.sp.sw0
 sweep: dc dc77   begin, #sweeps= 101 cpu clock=  6.80E-01
 sweep: dc dc77   end,  cpu clock=  6.80E-01 peak memory=       235 mb
 output: output/rram.sp.sw0
 sweep: dc dc78   begin, #sweeps= 101 cpu clock=  6.80E-01
 sweep: dc dc78   end,  cpu clock=  6.80E-01 peak memory=       235 mb
 output: output/rram.sp.sw0
 sweep: dc dc79   begin, #sweeps= 101 cpu clock=  6.80E-01
 sweep: dc dc79   end,  cpu clock=  6.90E-01 peak memory=       235 mb
 output: output/rram.sp.sw0
 sweep: dc dc80   begin, #sweeps= 101 cpu clock=  6.90E-01
 sweep: dc dc80   end,  cpu clock=  6.90E-01 peak memory=       235 mb
 output: output/rram.sp.sw0
 sweep: dc dc81   begin, #sweeps= 101 cpu clock=  6.90E-01
 sweep: dc dc81   end,  cpu clock=  7.00E-01 peak memory=       235 mb
 output: output/rram.sp.sw0
 sweep: dc dc82   begin, #sweeps= 101 cpu clock=  7.00E-01
 sweep: dc dc82   end,  cpu clock=  7.00E-01 peak memory=       235 mb
 output: output/rram.sp.sw0
 sweep: dc dc83   begin, #sweeps= 101 cpu clock=  7.10E-01
 sweep: dc dc83   end,  cpu clock=  7.10E-01 peak memory=       235 mb
 output: output/rram.sp.sw0
 sweep: dc dc84   begin, #sweeps= 101 cpu clock=  7.10E-01
 sweep: dc dc84   end,  cpu clock=  7.20E-01 peak memory=       235 mb
 output: output/rram.sp.sw0
 sweep: dc dc85   begin, #sweeps= 101 cpu clock=  7.20E-01
 sweep: dc dc85   end,  cpu clock=  7.20E-01 peak memory=       235 mb
 output: output/rram.sp.sw0
 sweep: dc dc86   begin, #sweeps= 101 cpu clock=  7.20E-01
 sweep: dc dc86   end,  cpu clock=  7.30E-01 peak memory=       235 mb
 output: output/rram.sp.sw0
 sweep: dc dc87   begin, #sweeps= 101 cpu clock=  7.30E-01
 sweep: dc dc87   end,  cpu clock=  7.30E-01 peak memory=       235 mb
 output: output/rram.sp.sw0
 sweep: dc dc88   begin, #sweeps= 101 cpu clock=  7.30E-01
 sweep: dc dc88   end,  cpu clock=  7.40E-01 peak memory=       235 mb
 output: output/rram.sp.sw0
 sweep: dc dc89   begin, #sweeps= 101 cpu clock=  7.40E-01
 sweep: dc dc89   end,  cpu clock=  7.40E-01 peak memory=       235 mb
 output: output/rram.sp.sw0
 sweep: dc dc90   begin, #sweeps= 101 cpu clock=  7.40E-01
 sweep: dc dc90   end,  cpu clock=  7.50E-01 peak memory=       235 mb
 output: output/rram.sp.sw0
 sweep: dc dc91   begin, #sweeps= 101 cpu clock=  7.50E-01
 sweep: dc dc91   end,  cpu clock=  7.50E-01 peak memory=       235 mb
 output: output/rram.sp.sw0
 sweep: dc dc92   begin, #sweeps= 101 cpu clock=  7.50E-01
 sweep: dc dc92   end,  cpu clock=  7.60E-01 peak memory=       235 mb
 output: output/rram.sp.sw0
 sweep: dc dc93   begin, #sweeps= 101 cpu clock=  7.60E-01
 sweep: dc dc93   end,  cpu clock=  7.60E-01 peak memory=       235 mb
 output: output/rram.sp.sw0
 sweep: dc dc94   begin, #sweeps= 101 cpu clock=  7.60E-01
 sweep: dc dc94   end,  cpu clock=  7.70E-01 peak memory=       235 mb
 output: output/rram.sp.sw0
 sweep: dc dc95   begin, #sweeps= 101 cpu clock=  7.70E-01
 sweep: dc dc95   end,  cpu clock=  7.70E-01 peak memory=       235 mb
 output: output/rram.sp.sw0
 sweep: dc dc96   begin, #sweeps= 101 cpu clock=  7.70E-01
 sweep: dc dc96   end,  cpu clock=  7.80E-01 peak memory=       235 mb
 output: output/rram.sp.sw0
 sweep: dc dc97   begin, #sweeps= 101 cpu clock=  7.80E-01
 sweep: dc dc97   end,  cpu clock=  7.80E-01 peak memory=       235 mb
 output: output/rram.sp.sw0
 sweep: dc dc98   begin, #sweeps= 101 cpu clock=  7.80E-01
 sweep: dc dc98   end,  cpu clock=  7.90E-01 peak memory=       235 mb
 output: output/rram.sp.sw0
 sweep: dc dc99   begin, #sweeps= 101 cpu clock=  7.90E-01
 sweep: dc dc99   end,  cpu clock=  7.90E-01 peak memory=       235 mb
 output: output/rram.sp.sw0
 sweep: dc dc100  begin, #sweeps= 101 cpu clock=  7.90E-01
 sweep: dc dc100  end,  cpu clock=  8.00E-01 peak memory=       235 mb
 output: output/rram.sp.sw0
 sweep: dc dc101  begin, #sweeps= 101 cpu clock=  8.00E-01
 sweep: dc dc101  end,  cpu clock=  8.00E-01 peak memory=       235 mb
 output: output/rram.sp.sw0
 sweep: dc dc102  begin, #sweeps= 101 cpu clock=  8.00E-01
 sweep: dc dc102  end,  cpu clock=  8.10E-01 peak memory=       235 mb
 output: output/rram.sp.sw0
 sweep: dc dc103  begin, #sweeps= 101 cpu clock=  8.10E-01
 sweep: dc dc103  end,  cpu clock=  8.10E-01 peak memory=       235 mb
 output: output/rram.sp.sw0
 sweep: dc dc104  begin, #sweeps= 101 cpu clock=  8.10E-01
 sweep: dc dc104  end,  cpu clock=  8.20E-01 peak memory=       235 mb
 output: output/rram.sp.sw0
 sweep: dc dc105  begin, #sweeps= 101 cpu clock=  8.20E-01
 sweep: dc dc105  end,  cpu clock=  8.20E-01 peak memory=       235 mb
 output: output/rram.sp.sw0
 sweep: dc dc106  begin, #sweeps= 101 cpu clock=  8.30E-01
 sweep: dc dc106  end,  cpu clock=  8.30E-01 peak memory=       235 mb
 output: output/rram.sp.sw0
 sweep: dc dc107  begin, #sweeps= 101 cpu clock=  8.30E-01
 sweep: dc dc107  end,  cpu clock=  8.30E-01 peak memory=       235 mb
 output: output/rram.sp.sw0
 sweep: dc dc108  begin, #sweeps= 101 cpu clock=  8.40E-01
 sweep: dc dc108  end,  cpu clock=  8.40E-01 peak memory=       235 mb
 output: output/rram.sp.sw0
 sweep: dc dc109  begin, #sweeps= 101 cpu clock=  8.40E-01
 sweep: dc dc109  end,  cpu clock=  8.50E-01 peak memory=       235 mb
 output: output/rram.sp.sw0
 sweep: dc dc110  begin, #sweeps= 101 cpu clock=  8.50E-01
 sweep: dc dc110  end,  cpu clock=  8.50E-01 peak memory=       235 mb
 output: output/rram.sp.sw0
 sweep: dc dc111  begin, #sweeps= 101 cpu clock=  8.50E-01
 sweep: dc dc111  end,  cpu clock=  8.60E-01 peak memory=       235 mb
 output: output/rram.sp.sw0
 sweep: dc dc112  begin, #sweeps= 101 cpu clock=  8.60E-01
 sweep: dc dc112  end,  cpu clock=  8.60E-01 peak memory=       235 mb
 output: output/rram.sp.sw0
 sweep: dc dc113  begin, #sweeps= 101 cpu clock=  8.60E-01
 sweep: dc dc113  end,  cpu clock=  8.70E-01 peak memory=       235 mb
 output: output/rram.sp.sw0
 sweep: dc dc114  begin, #sweeps= 101 cpu clock=  8.70E-01
 sweep: dc dc114  end,  cpu clock=  8.70E-01 peak memory=       235 mb
 output: output/rram.sp.sw0
 sweep: dc dc115  begin, #sweeps= 101 cpu clock=  8.70E-01
 sweep: dc dc115  end,  cpu clock=  8.80E-01 peak memory=       235 mb
 output: output/rram.sp.sw0
 sweep: dc dc116  begin, #sweeps= 101 cpu clock=  8.80E-01
 sweep: dc dc116  end,  cpu clock=  8.80E-01 peak memory=       235 mb
 output: output/rram.sp.sw0
 sweep: dc dc117  begin, #sweeps= 101 cpu clock=  8.80E-01
 sweep: dc dc117  end,  cpu clock=  8.90E-01 peak memory=       235 mb
 output: output/rram.sp.sw0
 sweep: dc dc118  begin, #sweeps= 101 cpu clock=  8.90E-01
 sweep: dc dc118  end,  cpu clock=  8.90E-01 peak memory=       235 mb
 output: output/rram.sp.sw0
 sweep: dc dc119  begin, #sweeps= 101 cpu clock=  8.90E-01
 sweep: dc dc119  end,  cpu clock=  9.00E-01 peak memory=       235 mb
 output: output/rram.sp.sw0
 sweep: dc dc120  begin, #sweeps= 101 cpu clock=  9.00E-01
 sweep: dc dc120  end,  cpu clock=  9.00E-01 peak memory=       235 mb
 output: output/rram.sp.sw0
 sweep: dc dc121  begin, #sweeps= 101 cpu clock=  9.00E-01
 sweep: dc dc121  end,  cpu clock=  9.10E-01 peak memory=       235 mb
 output: output/rram.sp.sw0
 sweep: dc dc122  begin, #sweeps= 101 cpu clock=  9.10E-01
 sweep: dc dc122  end,  cpu clock=  9.10E-01 peak memory=       235 mb
 output: output/rram.sp.sw0
 sweep: dc dc123  begin, #sweeps= 101 cpu clock=  9.10E-01
 sweep: dc dc123  end,  cpu clock=  9.20E-01 peak memory=       235 mb
 output: output/rram.sp.sw0
 sweep: dc dc124  begin, #sweeps= 101 cpu clock=  9.20E-01
 sweep: dc dc124  end,  cpu clock=  9.20E-01 peak memory=       235 mb
 output: output/rram.sp.sw0
 sweep: dc dc125  begin, #sweeps= 101 cpu clock=  9.20E-01
 sweep: dc dc125  end,  cpu clock=  9.30E-01 peak memory=       235 mb
 output: output/rram.sp.sw0
 sweep: dc dc126  begin, #sweeps= 101 cpu clock=  9.30E-01
 sweep: dc dc126  end,  cpu clock=  9.30E-01 peak memory=       235 mb
 output: output/rram.sp.sw0
 sweep: dc dc127  begin, #sweeps= 101 cpu clock=  9.40E-01
 sweep: dc dc127  end,  cpu clock=  9.40E-01 peak memory=       235 mb
 output: output/rram.sp.sw0
 sweep: dc dc128  begin, #sweeps= 101 cpu clock=  9.40E-01
 sweep: dc dc128  end,  cpu clock=  9.40E-01 peak memory=       235 mb
 output: output/rram.sp.sw0
 sweep: dc dc129  begin, #sweeps= 101 cpu clock=  9.50E-01
 sweep: dc dc129  end,  cpu clock=  9.50E-01 peak memory=       235 mb
 output: output/rram.sp.sw0
 sweep: dc dc130  begin, #sweeps= 101 cpu clock=  9.50E-01
 sweep: dc dc130  end,  cpu clock=  9.50E-01 peak memory=       235 mb
 output: output/rram.sp.sw0
 sweep: dc dc131  begin, #sweeps= 101 cpu clock=  9.60E-01
 sweep: dc dc131  end,  cpu clock=  9.60E-01 peak memory=       235 mb
 output: output/rram.sp.sw0
 sweep: dc dc132  begin, #sweeps= 101 cpu clock=  9.60E-01
 sweep: dc dc132  end,  cpu clock=  9.60E-01 peak memory=       235 mb
 output: output/rram.sp.sw0
 sweep: dc dc133  begin, #sweeps= 101 cpu clock=  9.60E-01
 sweep: dc dc133  end,  cpu clock=  9.70E-01 peak memory=       235 mb
 output: output/rram.sp.sw0
 sweep: dc dc134  begin, #sweeps= 101 cpu clock=  9.70E-01
 sweep: dc dc134  end,  cpu clock=  9.70E-01 peak memory=       235 mb
 output: output/rram.sp.sw0
 sweep: dc dc135  begin, #sweeps= 101 cpu clock=  9.70E-01
 sweep: dc dc135  end,  cpu clock=  9.80E-01 peak memory=       235 mb
 output: output/rram.sp.sw0
 sweep: dc dc136  begin, #sweeps= 101 cpu clock=  9.80E-01
 sweep: dc dc136  end,  cpu clock=  9.80E-01 peak memory=       235 mb
 output: output/rram.sp.sw0
 sweep: dc dc137  begin, #sweeps= 101 cpu clock=  9.80E-01
 sweep: dc dc137  end,  cpu clock=  9.90E-01 peak memory=       235 mb
 output: output/rram.sp.sw0
 sweep: dc dc138  begin, #sweeps= 101 cpu clock=  9.90E-01
 sweep: dc dc138  end,  cpu clock=  9.90E-01 peak memory=       235 mb
 output: output/rram.sp.sw0
 sweep: dc dc139  begin, #sweeps= 101 cpu clock=  1.00E+00
 sweep: dc dc139  end,  cpu clock=  1.00E+00 peak memory=       235 mb
 output: output/rram.sp.sw0
 sweep: dc dc140  begin, #sweeps= 101 cpu clock=  1.00E+00
 sweep: dc dc140  end,  cpu clock=  1.01E+00 peak memory=       235 mb
 output: output/rram.sp.sw0
 sweep: dc dc141  begin, #sweeps= 101 cpu clock=  1.01E+00
 sweep: dc dc141  end,  cpu clock=  1.01E+00 peak memory=       235 mb
 output: output/rram.sp.sw0
 sweep: dc dc142  begin, #sweeps= 101 cpu clock=  1.01E+00
 sweep: dc dc142  end,  cpu clock=  1.02E+00 peak memory=       235 mb
 output: output/rram.sp.sw0
 sweep: dc dc143  begin, #sweeps= 101 cpu clock=  1.02E+00
 sweep: dc dc143  end,  cpu clock=  1.02E+00 peak memory=       235 mb
 output: output/rram.sp.sw0
 sweep: dc dc144  begin, #sweeps= 101 cpu clock=  1.02E+00
 sweep: dc dc144  end,  cpu clock=  1.03E+00 peak memory=       235 mb
 output: output/rram.sp.sw0
 sweep: dc dc145  begin, #sweeps= 101 cpu clock=  1.03E+00
 sweep: dc dc145  end,  cpu clock=  1.03E+00 peak memory=       235 mb
 output: output/rram.sp.sw0
 sweep: dc dc146  begin, #sweeps= 101 cpu clock=  1.03E+00
 sweep: dc dc146  end,  cpu clock=  1.04E+00 peak memory=       235 mb
 output: output/rram.sp.sw0
 sweep: dc dc147  begin, #sweeps= 101 cpu clock=  1.04E+00
 sweep: dc dc147  end,  cpu clock=  1.04E+00 peak memory=       235 mb
 output: output/rram.sp.sw0
 sweep: dc dc148  begin, #sweeps= 101 cpu clock=  1.04E+00
 sweep: dc dc148  end,  cpu clock=  1.05E+00 peak memory=       235 mb
 output: output/rram.sp.sw0
 sweep: dc dc149  begin, #sweeps= 101 cpu clock=  1.05E+00
 sweep: dc dc149  end,  cpu clock=  1.05E+00 peak memory=       235 mb
 output: output/rram.sp.sw0
 sweep: dc dc150  begin, #sweeps= 101 cpu clock=  1.05E+00
 sweep: dc dc150  end,  cpu clock=  1.06E+00 peak memory=       235 mb
 output: output/rram.sp.sw0
 sweep: dc dc151  begin, #sweeps= 101 cpu clock=  1.06E+00
 sweep: dc dc151  end,  cpu clock=  1.06E+00 peak memory=       235 mb
 output: output/rram.sp.sw0
 sweep: dc dc152  begin, #sweeps= 101 cpu clock=  1.06E+00
 sweep: dc dc152  end,  cpu clock=  1.07E+00 peak memory=       235 mb
 output: output/rram.sp.sw0
 sweep: dc dc153  begin, #sweeps= 101 cpu clock=  1.07E+00
 sweep: dc dc153  end,  cpu clock=  1.07E+00 peak memory=       235 mb
 output: output/rram.sp.sw0
 sweep: dc dc154  begin, #sweeps= 101 cpu clock=  1.07E+00
 sweep: dc dc154  end,  cpu clock=  1.08E+00 peak memory=       235 mb
 output: output/rram.sp.sw0
 sweep: dc dc155  begin, #sweeps= 101 cpu clock=  1.08E+00
 sweep: dc dc155  end,  cpu clock=  1.08E+00 peak memory=       235 mb
 output: output/rram.sp.sw0
 sweep: dc dc156  begin, #sweeps= 101 cpu clock=  1.08E+00
 sweep: dc dc156  end,  cpu clock=  1.09E+00 peak memory=       235 mb
 output: output/rram.sp.sw0
 sweep: dc dc157  begin, #sweeps= 101 cpu clock=  1.09E+00
 sweep: dc dc157  end,  cpu clock=  1.09E+00 peak memory=       235 mb
 output: output/rram.sp.sw0
 sweep: dc dc158  begin, #sweeps= 101 cpu clock=  1.09E+00
 sweep: dc dc158  end,  cpu clock=  1.10E+00 peak memory=       235 mb
 output: output/rram.sp.sw0
 sweep: dc dc159  begin, #sweeps= 101 cpu clock=  1.10E+00
 sweep: dc dc159  end,  cpu clock=  1.10E+00 peak memory=       235 mb
 output: output/rram.sp.sw0
 sweep: dc dc160  begin, #sweeps= 101 cpu clock=  1.11E+00
 sweep: dc dc160  end,  cpu clock=  1.11E+00 peak memory=       235 mb
 output: output/rram.sp.sw0
 sweep: dc dc161  begin, #sweeps= 101 cpu clock=  1.11E+00
 sweep: dc dc161  end,  cpu clock=  1.11E+00 peak memory=       236 mb
 output: output/rram.sp.sw0
 sweep: dc dc162  begin, #sweeps= 101 cpu clock=  1.11E+00
 sweep: dc dc162  end,  cpu clock=  1.12E+00 peak memory=       236 mb
 output: output/rram.sp.sw0
 sweep: dc dc163  begin, #sweeps= 101 cpu clock=  1.12E+00
 sweep: dc dc163  end,  cpu clock=  1.12E+00 peak memory=       236 mb
 output: output/rram.sp.sw0
 sweep: dc dc164  begin, #sweeps= 101 cpu clock=  1.12E+00
 sweep: dc dc164  end,  cpu clock=  1.13E+00 peak memory=       236 mb
 output: output/rram.sp.sw0
 sweep: dc dc165  begin, #sweeps= 101 cpu clock=  1.13E+00
 sweep: dc dc165  end,  cpu clock=  1.13E+00 peak memory=       236 mb
 output: output/rram.sp.sw0
 sweep: dc dc166  begin, #sweeps= 101 cpu clock=  1.13E+00
 sweep: dc dc166  end,  cpu clock=  1.14E+00 peak memory=       236 mb
 output: output/rram.sp.sw0
 sweep: dc dc167  begin, #sweeps= 101 cpu clock=  1.14E+00
 sweep: dc dc167  end,  cpu clock=  1.14E+00 peak memory=       236 mb
 output: output/rram.sp.sw0
 sweep: dc dc168  begin, #sweeps= 101 cpu clock=  1.14E+00
 sweep: dc dc168  end,  cpu clock=  1.15E+00 peak memory=       236 mb
 output: output/rram.sp.sw0
 sweep: dc dc169  begin, #sweeps= 101 cpu clock=  1.15E+00
 sweep: dc dc169  end,  cpu clock=  1.15E+00 peak memory=       236 mb
 output: output/rram.sp.sw0
 sweep: dc dc170  begin, #sweeps= 101 cpu clock=  1.15E+00
 sweep: dc dc170  end,  cpu clock=  1.16E+00 peak memory=       236 mb
 output: output/rram.sp.sw0
 sweep: dc dc171  begin, #sweeps= 101 cpu clock=  1.16E+00
 sweep: dc dc171  end,  cpu clock=  1.16E+00 peak memory=       236 mb
 output: output/rram.sp.sw0
 sweep: dc dc172  begin, #sweeps= 101 cpu clock=  1.16E+00
 sweep: dc dc172  end,  cpu clock=  1.17E+00 peak memory=       236 mb
 output: output/rram.sp.sw0
 sweep: dc dc173  begin, #sweeps= 101 cpu clock=  1.17E+00
 sweep: dc dc173  end,  cpu clock=  1.17E+00 peak memory=       236 mb
 output: output/rram.sp.sw0
 sweep: dc dc174  begin, #sweeps= 101 cpu clock=  1.18E+00
 sweep: dc dc174  end,  cpu clock=  1.18E+00 peak memory=       236 mb
 output: output/rram.sp.sw0
 sweep: dc dc175  begin, #sweeps= 101 cpu clock=  1.18E+00
 sweep: dc dc175  end,  cpu clock=  1.18E+00 peak memory=       236 mb
 output: output/rram.sp.sw0
 sweep: dc dc176  begin, #sweeps= 101 cpu clock=  1.19E+00
 sweep: dc dc176  end,  cpu clock=  1.19E+00 peak memory=       236 mb
 output: output/rram.sp.sw0
 sweep: dc dc177  begin, #sweeps= 101 cpu clock=  1.19E+00
 sweep: dc dc177  end,  cpu clock=  1.19E+00 peak memory=       236 mb
 output: output/rram.sp.sw0
 sweep: dc dc178  begin, #sweeps= 101 cpu clock=  1.20E+00
 sweep: dc dc178  end,  cpu clock=  1.20E+00 peak memory=       236 mb
 output: output/rram.sp.sw0
 sweep: dc dc179  begin, #sweeps= 101 cpu clock=  1.20E+00
 sweep: dc dc179  end,  cpu clock=  1.20E+00 peak memory=       236 mb
 output: output/rram.sp.sw0
 sweep: dc dc180  begin, #sweeps= 101 cpu clock=  1.21E+00
 sweep: dc dc180  end,  cpu clock=  1.21E+00 peak memory=       230 mb
 output: output/rram.sp.sw0
 sweep: dc dc181  begin, #sweeps= 101 cpu clock=  1.21E+00
 sweep: dc dc181  end,  cpu clock=  1.21E+00 peak memory=       230 mb
 output: output/rram.sp.sw0
 sweep: dc dc182  begin, #sweeps= 101 cpu clock=  1.21E+00
 sweep: dc dc182  end,  cpu clock=  1.21E+00 peak memory=       230 mb
 output: output/rram.sp.sw0
 sweep: dc dc183  begin, #sweeps= 101 cpu clock=  1.21E+00
 sweep: dc dc183  end,  cpu clock=  1.21E+00 peak memory=       230 mb
 output: output/rram.sp.sw0
 sweep: dc dc184  begin, #sweeps= 101 cpu clock=  1.22E+00
 sweep: dc dc184  end,  cpu clock=  1.22E+00 peak memory=       230 mb
 output: output/rram.sp.sw0
 sweep: dc dc185  begin, #sweeps= 101 cpu clock=  1.22E+00
 sweep: dc dc185  end,  cpu clock=  1.22E+00 peak memory=       230 mb
 output: output/rram.sp.sw0
 sweep: dc dc186  begin, #sweeps= 101 cpu clock=  1.22E+00
 sweep: dc dc186  end,  cpu clock=  1.22E+00 peak memory=       230 mb
 output: output/rram.sp.sw0
 sweep: dc dc187  begin, #sweeps= 101 cpu clock=  1.22E+00
 sweep: dc dc187  end,  cpu clock=  1.23E+00 peak memory=       230 mb
 output: output/rram.sp.sw0
 sweep: dc dc188  begin, #sweeps= 101 cpu clock=  1.23E+00
 sweep: dc dc188  end,  cpu clock=  1.23E+00 peak memory=       230 mb
 output: output/rram.sp.sw0
 sweep: dc dc189  begin, #sweeps= 101 cpu clock=  1.23E+00
 sweep: dc dc189  end,  cpu clock=  1.23E+00 peak memory=       230 mb
 output: output/rram.sp.sw0
 sweep: dc dc190  begin, #sweeps= 101 cpu clock=  1.23E+00
 sweep: dc dc190  end,  cpu clock=  1.23E+00 peak memory=       230 mb
 output: output/rram.sp.sw0
 sweep: dc dc191  begin, #sweeps= 101 cpu clock=  1.23E+00
 sweep: dc dc191  end,  cpu clock=  1.24E+00 peak memory=       230 mb
 output: output/rram.sp.sw0
 sweep: dc dc192  begin, #sweeps= 101 cpu clock=  1.24E+00
 sweep: dc dc192  end,  cpu clock=  1.24E+00 peak memory=       230 mb
 output: output/rram.sp.sw0
 sweep: dc dc193  begin, #sweeps= 101 cpu clock=  1.24E+00
 sweep: dc dc193  end,  cpu clock=  1.24E+00 peak memory=       230 mb
 output: output/rram.sp.sw0
 sweep: dc dc194  begin, #sweeps= 101 cpu clock=  1.24E+00
 sweep: dc dc194  end,  cpu clock=  1.24E+00 peak memory=       230 mb
 output: output/rram.sp.sw0
 sweep: dc dc195  begin, #sweeps= 101 cpu clock=  1.24E+00
 sweep: dc dc195  end,  cpu clock=  1.25E+00 peak memory=       230 mb
 output: output/rram.sp.sw0
 sweep: dc dc196  begin, #sweeps= 101 cpu clock=  1.25E+00
 sweep: dc dc196  end,  cpu clock=  1.25E+00 peak memory=       230 mb
 output: output/rram.sp.sw0
 sweep: dc dc197  begin, #sweeps= 101 cpu clock=  1.25E+00
 sweep: dc dc197  end,  cpu clock=  1.25E+00 peak memory=       230 mb
 output: output/rram.sp.sw0
 sweep: dc dc198  begin, #sweeps= 101 cpu clock=  1.25E+00
 sweep: dc dc198  end,  cpu clock=  1.26E+00 peak memory=       230 mb
 output: output/rram.sp.sw0
 sweep: dc dc199  begin, #sweeps= 101 cpu clock=  1.26E+00
 sweep: dc dc199  end,  cpu clock=  1.26E+00 peak memory=       230 mb
 output: output/rram.sp.sw0
 sweep: dc dc200  begin, #sweeps= 101 cpu clock=  1.26E+00
 sweep: dc dc200  end,  cpu clock=  1.26E+00 peak memory=       230 mb
 output: output/rram.sp.sw0
 sweep: dc dc201  begin, #sweeps= 101 cpu clock=  1.26E+00
 sweep: dc dc201  end,  cpu clock=  1.26E+00 peak memory=       230 mb
 output: output/rram.sp.sw0
 sweep: dc dc202  begin, #sweeps= 101 cpu clock=  1.26E+00
 sweep: dc dc202  end,  cpu clock=  1.26E+00 peak memory=       230 mb
 output: output/rram.sp.sw0
 sweep: dc dc203  begin, #sweeps= 101 cpu clock=  1.26E+00
 sweep: dc dc203  end,  cpu clock=  1.27E+00 peak memory=       230 mb
 output: output/rram.sp.sw0
 sweep: dc dc204  begin, #sweeps= 101 cpu clock=  1.27E+00
 sweep: dc dc204  end,  cpu clock=  1.27E+00 peak memory=       230 mb
 output: output/rram.sp.sw0
 sweep: dc dc205  begin, #sweeps= 101 cpu clock=  1.27E+00
 sweep: dc dc205  end,  cpu clock=  1.27E+00 peak memory=       230 mb
 output: output/rram.sp.sw0
 sweep: dc dc206  begin, #sweeps= 101 cpu clock=  1.27E+00
 sweep: dc dc206  end,  cpu clock=  1.27E+00 peak memory=       230 mb
 output: output/rram.sp.sw0
 sweep: dc dc207  begin, #sweeps= 101 cpu clock=  1.27E+00
 sweep: dc dc207  end,  cpu clock=  1.28E+00 peak memory=       230 mb
 output: output/rram.sp.sw0
 sweep: dc dc208  begin, #sweeps= 101 cpu clock=  1.28E+00
 sweep: dc dc208  end,  cpu clock=  1.28E+00 peak memory=       230 mb
 output: output/rram.sp.sw0
 sweep: dc dc209  begin, #sweeps= 101 cpu clock=  1.28E+00
 sweep: dc dc209  end,  cpu clock=  1.28E+00 peak memory=       230 mb
 output: output/rram.sp.sw0
 sweep: dc dc210  begin, #sweeps= 101 cpu clock=  1.28E+00
 sweep: dc dc210  end,  cpu clock=  1.28E+00 peak memory=       230 mb
 output: output/rram.sp.sw0
 sweep: dc dc211  begin, #sweeps= 101 cpu clock=  1.28E+00
 sweep: dc dc211  end,  cpu clock=  1.29E+00 peak memory=       230 mb
 output: output/rram.sp.sw0
 sweep: dc dc212  begin, #sweeps= 101 cpu clock=  1.29E+00
 sweep: dc dc212  end,  cpu clock=  1.29E+00 peak memory=       230 mb
 output: output/rram.sp.sw0
 sweep: dc dc213  begin, #sweeps= 101 cpu clock=  1.29E+00
 sweep: dc dc213  end,  cpu clock=  1.29E+00 peak memory=       230 mb
 output: output/rram.sp.sw0
 sweep: dc dc214  begin, #sweeps= 101 cpu clock=  1.29E+00
 sweep: dc dc214  end,  cpu clock=  1.29E+00 peak memory=       230 mb
 output: output/rram.sp.sw0
 sweep: dc dc215  begin, #sweeps= 101 cpu clock=  1.30E+00
 sweep: dc dc215  end,  cpu clock=  1.30E+00 peak memory=       230 mb
 output: output/rram.sp.sw0
 sweep: dc dc216  begin, #sweeps= 101 cpu clock=  1.30E+00
 sweep: dc dc216  end,  cpu clock=  1.30E+00 peak memory=       230 mb
 output: output/rram.sp.sw0
 sweep: dc dc217  begin, #sweeps= 101 cpu clock=  1.30E+00
 sweep: dc dc217  end,  cpu clock=  1.30E+00 peak memory=       230 mb
 output: output/rram.sp.sw0
 sweep: dc dc218  begin, #sweeps= 101 cpu clock=  1.30E+00
 sweep: dc dc218  end,  cpu clock=  1.31E+00 peak memory=       230 mb
 output: output/rram.sp.sw0
 sweep: dc dc219  begin, #sweeps= 101 cpu clock=  1.31E+00
 sweep: dc dc219  end,  cpu clock=  1.31E+00 peak memory=       230 mb
 output: output/rram.sp.sw0
 sweep: dc dc220  begin, #sweeps= 101 cpu clock=  1.31E+00
 sweep: dc dc220  end,  cpu clock=  1.31E+00 peak memory=       230 mb
 output: output/rram.sp.sw0
 sweep: dc dc221  begin, #sweeps= 101 cpu clock=  1.31E+00
 sweep: dc dc221  end,  cpu clock=  1.31E+00 peak memory=       230 mb
 output: output/rram.sp.sw0
 sweep: dc dc222  begin, #sweeps= 101 cpu clock=  1.31E+00
 sweep: dc dc222  end,  cpu clock=  1.32E+00 peak memory=       230 mb
 output: output/rram.sp.sw0
 sweep: dc dc223  begin, #sweeps= 101 cpu clock=  1.32E+00
 sweep: dc dc223  end,  cpu clock=  1.32E+00 peak memory=       230 mb
 output: output/rram.sp.sw0
 sweep: dc dc224  begin, #sweeps= 101 cpu clock=  1.32E+00
 sweep: dc dc224  end,  cpu clock=  1.32E+00 peak memory=       230 mb
 output: output/rram.sp.sw0
 sweep: dc dc225  begin, #sweeps= 101 cpu clock=  1.32E+00
 sweep: dc dc225  end,  cpu clock=  1.32E+00 peak memory=       230 mb
 output: output/rram.sp.sw0
 sweep: dc dc226  begin, #sweeps= 101 cpu clock=  1.32E+00
 sweep: dc dc226  end,  cpu clock=  1.32E+00 peak memory=       230 mb
 output: output/rram.sp.sw0
 sweep: dc dc227  begin, #sweeps= 101 cpu clock=  1.33E+00
 sweep: dc dc227  end,  cpu clock=  1.33E+00 peak memory=       230 mb
 output: output/rram.sp.sw0
 sweep: dc dc228  begin, #sweeps= 101 cpu clock=  1.33E+00
 sweep: dc dc228  end,  cpu clock=  1.33E+00 peak memory=       230 mb
 output: output/rram.sp.sw0
 sweep: dc dc229  begin, #sweeps= 101 cpu clock=  1.33E+00
 sweep: dc dc229  end,  cpu clock=  1.33E+00 peak memory=       230 mb
 output: output/rram.sp.sw0
 sweep: dc dc230  begin, #sweeps= 101 cpu clock=  1.33E+00
 sweep: dc dc230  end,  cpu clock=  1.34E+00 peak memory=       230 mb
 output: output/rram.sp.sw0
 sweep: dc dc231  begin, #sweeps= 101 cpu clock=  1.34E+00
 sweep: dc dc231  end,  cpu clock=  1.34E+00 peak memory=       230 mb
 output: output/rram.sp.sw0
 sweep: dc dc232  begin, #sweeps= 101 cpu clock=  1.34E+00
 sweep: dc dc232  end,  cpu clock=  1.34E+00 peak memory=       230 mb
 output: output/rram.sp.sw0
 sweep: dc dc233  begin, #sweeps= 101 cpu clock=  1.34E+00
 sweep: dc dc233  end,  cpu clock=  1.34E+00 peak memory=       230 mb
 output: output/rram.sp.sw0
 sweep: dc dc234  begin, #sweeps= 101 cpu clock=  1.34E+00
 sweep: dc dc234  end,  cpu clock=  1.34E+00 peak memory=       230 mb
 output: output/rram.sp.sw0
 sweep: dc dc235  begin, #sweeps= 101 cpu clock=  1.35E+00
 sweep: dc dc235  end,  cpu clock=  1.35E+00 peak memory=       230 mb
 output: output/rram.sp.sw0
 sweep: dc dc236  begin, #sweeps= 101 cpu clock=  1.35E+00
 sweep: dc dc236  end,  cpu clock=  1.35E+00 peak memory=       230 mb
 output: output/rram.sp.sw0
 sweep: dc dc237  begin, #sweeps= 101 cpu clock=  1.35E+00
 sweep: dc dc237  end,  cpu clock=  1.35E+00 peak memory=       230 mb
 output: output/rram.sp.sw0
 sweep: dc dc238  begin, #sweeps= 101 cpu clock=  1.35E+00
 sweep: dc dc238  end,  cpu clock=  1.36E+00 peak memory=       230 mb
 output: output/rram.sp.sw0
 sweep: dc dc239  begin, #sweeps= 101 cpu clock=  1.36E+00
 sweep: dc dc239  end,  cpu clock=  1.36E+00 peak memory=       230 mb
 output: output/rram.sp.sw0
 sweep: dc dc240  begin, #sweeps= 101 cpu clock=  1.36E+00
 sweep: dc dc240  end,  cpu clock=  1.36E+00 peak memory=       230 mb
 output: output/rram.sp.sw0
 sweep: dc dc241  begin, #sweeps= 101 cpu clock=  1.36E+00
 sweep: dc dc241  end,  cpu clock=  1.36E+00 peak memory=       230 mb
 output: output/rram.sp.sw0
 sweep: dc dc242  begin, #sweeps= 101 cpu clock=  1.36E+00
 sweep: dc dc242  end,  cpu clock=  1.37E+00 peak memory=       230 mb
 output: output/rram.sp.sw0
 sweep: dc dc243  begin, #sweeps= 101 cpu clock=  1.37E+00
 sweep: dc dc243  end,  cpu clock=  1.37E+00 peak memory=       230 mb
 output: output/rram.sp.sw0
 sweep: dc dc244  begin, #sweeps= 101 cpu clock=  1.37E+00
 sweep: dc dc244  end,  cpu clock=  1.37E+00 peak memory=       230 mb
 output: output/rram.sp.sw0
 sweep: dc dc245  begin, #sweeps= 101 cpu clock=  1.37E+00
 sweep: dc dc245  end,  cpu clock=  1.37E+00 peak memory=       230 mb
 output: output/rram.sp.sw0
 sweep: dc dc246  begin, #sweeps= 101 cpu clock=  1.37E+00
 sweep: dc dc246  end,  cpu clock=  1.37E+00 peak memory=       230 mb
 output: output/rram.sp.sw0
 sweep: dc dc247  begin, #sweeps= 101 cpu clock=  1.37E+00
 sweep: dc dc247  end,  cpu clock=  1.38E+00 peak memory=       230 mb
 output: output/rram.sp.sw0
 sweep: dc dc248  begin, #sweeps= 101 cpu clock=  1.38E+00
 sweep: dc dc248  end,  cpu clock=  1.38E+00 peak memory=       230 mb
 output: output/rram.sp.sw0
 sweep: dc dc249  begin, #sweeps= 101 cpu clock=  1.38E+00
 sweep: dc dc249  end,  cpu clock=  1.38E+00 peak memory=       230 mb
 output: output/rram.sp.sw0
 sweep: dc dc250  begin, #sweeps= 101 cpu clock=  1.38E+00
 sweep: dc dc250  end,  cpu clock=  1.38E+00 peak memory=       230 mb
 output: output/rram.sp.sw0
 sweep: dc dc251  begin, #sweeps= 101 cpu clock=  1.38E+00
 sweep: dc dc251  end,  cpu clock=  1.38E+00 peak memory=       230 mb
 output: output/rram.sp.sw0
 sweep: dc dc252  begin, #sweeps= 101 cpu clock=  1.39E+00
 sweep: dc dc252  end,  cpu clock=  1.39E+00 peak memory=       230 mb
 output: output/rram.sp.sw0
 sweep: dc dc253  begin, #sweeps= 101 cpu clock=  1.39E+00
 sweep: dc dc253  end,  cpu clock=  1.39E+00 peak memory=       230 mb
 output: output/rram.sp.sw0
 sweep: dc dc254  begin, #sweeps= 101 cpu clock=  1.39E+00
 sweep: dc dc254  end,  cpu clock=  1.39E+00 peak memory=       230 mb
 output: output/rram.sp.sw0
 sweep: dc dc255  begin, #sweeps= 101 cpu clock=  1.39E+00
 sweep: dc dc255  end,  cpu clock=  1.39E+00 peak memory=       230 mb
 output: output/rram.sp.sw0
 sweep: dc dc256  begin, #sweeps= 101 cpu clock=  1.39E+00
 sweep: dc dc256  end,  cpu clock=  1.40E+00 peak memory=       230 mb
 output: output/rram.sp.sw0
 sweep: dc dc257  begin, #sweeps= 101 cpu clock=  1.40E+00
 sweep: dc dc257  end,  cpu clock=  1.40E+00 peak memory=       230 mb
 output: output/rram.sp.sw0
 sweep: dc dc258  begin, #sweeps= 101 cpu clock=  1.40E+00
 sweep: dc dc258  end,  cpu clock=  1.40E+00 peak memory=       230 mb
 output: output/rram.sp.sw0
 sweep: dc dc259  begin, #sweeps= 101 cpu clock=  1.40E+00
 sweep: dc dc259  end,  cpu clock=  1.40E+00 peak memory=       230 mb
 output: output/rram.sp.sw0
 sweep: dc dc260  begin, #sweeps= 101 cpu clock=  1.40E+00
 sweep: dc dc260  end,  cpu clock=  1.40E+00 peak memory=       230 mb
 output: output/rram.sp.sw0
 sweep: dc dc261  begin, #sweeps= 101 cpu clock=  1.40E+00
 sweep: dc dc261  end,  cpu clock=  1.40E+00 peak memory=       230 mb
 output: output/rram.sp.sw0
 sweep: dc dc262  begin, #sweeps= 101 cpu clock=  1.40E+00
 sweep: dc dc262  end,  cpu clock=  1.41E+00 peak memory=       230 mb
 output: output/rram.sp.sw0
 sweep: dc dc263  begin, #sweeps= 101 cpu clock=  1.41E+00
 sweep: dc dc263  end,  cpu clock=  1.41E+00 peak memory=       230 mb
 output: output/rram.sp.sw0
 sweep: dc dc264  begin, #sweeps= 101 cpu clock=  1.41E+00
 sweep: dc dc264  end,  cpu clock=  1.41E+00 peak memory=       230 mb
 output: output/rram.sp.sw0
 sweep: dc dc265  begin, #sweeps= 101 cpu clock=  1.41E+00
 sweep: dc dc265  end,  cpu clock=  1.41E+00 peak memory=       230 mb
 output: output/rram.sp.sw0
 sweep: dc dc266  begin, #sweeps= 101 cpu clock=  1.41E+00
 sweep: dc dc266  end,  cpu clock=  1.41E+00 peak memory=       230 mb
 output: output/rram.sp.sw0
 sweep: dc dc267  begin, #sweeps= 101 cpu clock=  1.42E+00
 sweep: dc dc267  end,  cpu clock=  1.42E+00 peak memory=       230 mb
 output: output/rram.sp.sw0
 sweep: dc dc268  begin, #sweeps= 101 cpu clock=  1.42E+00
 sweep: dc dc268  end,  cpu clock=  1.42E+00 peak memory=       230 mb
 output: output/rram.sp.sw0
 sweep: dc dc269  begin, #sweeps= 101 cpu clock=  1.42E+00
 sweep: dc dc269  end,  cpu clock=  1.42E+00 peak memory=       230 mb
 output: output/rram.sp.sw0
 sweep: dc dc270  begin, #sweeps= 101 cpu clock=  1.42E+00
 sweep: dc dc270  end,  cpu clock=  1.42E+00 peak memory=       230 mb
 output: output/rram.sp.sw0
 sweep: dc dc271  begin, #sweeps= 101 cpu clock=  1.42E+00
 sweep: dc dc271  end,  cpu clock=  1.42E+00 peak memory=       230 mb
 output: output/rram.sp.sw0
 sweep: dc dc272  begin, #sweeps= 101 cpu clock=  1.42E+00
 sweep: dc dc272  end,  cpu clock=  1.43E+00 peak memory=       230 mb
 output: output/rram.sp.sw0
 sweep: dc dc273  begin, #sweeps= 101 cpu clock=  1.43E+00
 sweep: dc dc273  end,  cpu clock=  1.43E+00 peak memory=       230 mb
 output: output/rram.sp.sw0
 sweep: dc dc274  begin, #sweeps= 101 cpu clock=  1.43E+00
 sweep: dc dc274  end,  cpu clock=  1.43E+00 peak memory=       230 mb
 output: output/rram.sp.sw0
 sweep: dc dc275  begin, #sweeps= 101 cpu clock=  1.43E+00
 sweep: dc dc275  end,  cpu clock=  1.43E+00 peak memory=       230 mb
 output: output/rram.sp.sw0
 sweep: dc dc276  begin, #sweeps= 101 cpu clock=  1.43E+00
 sweep: dc dc276  end,  cpu clock=  1.43E+00 peak memory=       230 mb
 output: output/rram.sp.sw0
 sweep: dc dc277  begin, #sweeps= 101 cpu clock=  1.43E+00
 sweep: dc dc277  end,  cpu clock=  1.43E+00 peak memory=       230 mb
 output: output/rram.sp.sw0
 sweep: dc dc278  begin, #sweeps= 101 cpu clock=  1.43E+00
 sweep: dc dc278  end,  cpu clock=  1.44E+00 peak memory=       230 mb
 output: output/rram.sp.sw0
 sweep: dc dc279  begin, #sweeps= 101 cpu clock=  1.44E+00
 sweep: dc dc279  end,  cpu clock=  1.44E+00 peak memory=       230 mb
 output: output/rram.sp.sw0
 sweep: dc dc280  begin, #sweeps= 101 cpu clock=  1.44E+00
 sweep: dc dc280  end,  cpu clock=  1.44E+00 peak memory=       230 mb
 output: output/rram.sp.sw0
 sweep: dc dc281  begin, #sweeps= 101 cpu clock=  1.44E+00
 sweep: dc dc281  end,  cpu clock=  1.44E+00 peak memory=       230 mb
 output: output/rram.sp.sw0
 sweep: dc dc282  begin, #sweeps= 101 cpu clock=  1.44E+00
 sweep: dc dc282  end,  cpu clock=  1.44E+00 peak memory=       230 mb
 output: output/rram.sp.sw0
 sweep: dc dc283  begin, #sweeps= 101 cpu clock=  1.44E+00
 sweep: dc dc283  end,  cpu clock=  1.44E+00 peak memory=       230 mb
 output: output/rram.sp.sw0
 sweep: dc dc284  begin, #sweeps= 101 cpu clock=  1.44E+00
 sweep: dc dc284  end,  cpu clock=  1.45E+00 peak memory=       230 mb
 output: output/rram.sp.sw0
 sweep: dc dc285  begin, #sweeps= 101 cpu clock=  1.45E+00
 sweep: dc dc285  end,  cpu clock=  1.45E+00 peak memory=       230 mb
 output: output/rram.sp.sw0
 sweep: dc dc286  begin, #sweeps= 101 cpu clock=  1.45E+00
 sweep: dc dc286  end,  cpu clock=  1.45E+00 peak memory=       230 mb
 output: output/rram.sp.sw0
 sweep: dc dc287  begin, #sweeps= 101 cpu clock=  1.45E+00
 sweep: dc dc287  end,  cpu clock=  1.45E+00 peak memory=       230 mb
 output: output/rram.sp.sw0
 sweep: dc dc288  begin, #sweeps= 101 cpu clock=  1.45E+00
 sweep: dc dc288  end,  cpu clock=  1.45E+00 peak memory=       230 mb
 output: output/rram.sp.sw0
 sweep: dc dc289  begin, #sweeps= 101 cpu clock=  1.45E+00
 sweep: dc dc289  end,  cpu clock=  1.46E+00 peak memory=       230 mb
 output: output/rram.sp.sw0
 sweep: dc dc290  begin, #sweeps= 101 cpu clock=  1.46E+00
 sweep: dc dc290  end,  cpu clock=  1.46E+00 peak memory=       230 mb
 output: output/rram.sp.sw0
 sweep: dc dc291  begin, #sweeps= 101 cpu clock=  1.46E+00
 sweep: dc dc291  end,  cpu clock=  1.46E+00 peak memory=       230 mb
 output: output/rram.sp.sw0
 sweep: dc dc292  begin, #sweeps= 101 cpu clock=  1.46E+00
 sweep: dc dc292  end,  cpu clock=  1.46E+00 peak memory=       230 mb
 output: output/rram.sp.sw0
 sweep: dc dc293  begin, #sweeps= 101 cpu clock=  1.46E+00
 sweep: dc dc293  end,  cpu clock=  1.46E+00 peak memory=       230 mb
 output: output/rram.sp.sw0
 sweep: dc dc294  begin, #sweeps= 101 cpu clock=  1.46E+00
 sweep: dc dc294  end,  cpu clock=  1.46E+00 peak memory=       230 mb
 output: output/rram.sp.sw0
 sweep: dc dc295  begin, #sweeps= 101 cpu clock=  1.46E+00
 sweep: dc dc295  end,  cpu clock=  1.47E+00 peak memory=       230 mb
 output: output/rram.sp.sw0
 sweep: dc dc296  begin, #sweeps= 101 cpu clock=  1.47E+00
 sweep: dc dc296  end,  cpu clock=  1.47E+00 peak memory=       230 mb
 output: output/rram.sp.sw0
 sweep: dc dc297  begin, #sweeps= 101 cpu clock=  1.47E+00
 sweep: dc dc297  end,  cpu clock=  1.47E+00 peak memory=       230 mb
 output: output/rram.sp.sw0
 sweep: dc dc298  begin, #sweeps= 101 cpu clock=  1.47E+00
 sweep: dc dc298  end,  cpu clock=  1.47E+00 peak memory=       230 mb
 output: output/rram.sp.sw0
 sweep: dc dc299  begin, #sweeps= 101 cpu clock=  1.47E+00
 sweep: dc dc299  end,  cpu clock=  1.47E+00 peak memory=       230 mb
 output: output/rram.sp.sw0
 sweep: dc dc300  begin, #sweeps= 101 cpu clock=  1.47E+00
 sweep: dc dc300  end,  cpu clock=  1.47E+00 peak memory=       230 mb
 output: output/rram.sp.sw0
 sweep: dc dc301  begin, #sweeps= 101 cpu clock=  1.48E+00
 sweep: dc dc301  end,  cpu clock=  1.48E+00 peak memory=       230 mb
 output: output/rram.sp.sw0
 sweep: dc dc302  begin, #sweeps= 101 cpu clock=  1.48E+00
 sweep: dc dc302  end,  cpu clock=  1.48E+00 peak memory=       230 mb
 output: output/rram.sp.sw0
 sweep: dc dc303  begin, #sweeps= 101 cpu clock=  1.48E+00
 sweep: dc dc303  end,  cpu clock=  1.48E+00 peak memory=       230 mb
 output: output/rram.sp.sw0
 sweep: dc dc304  begin, #sweeps= 101 cpu clock=  1.48E+00
 sweep: dc dc304  end,  cpu clock=  1.48E+00 peak memory=       230 mb
 output: output/rram.sp.sw0
 sweep: dc dc305  begin, #sweeps= 101 cpu clock=  1.48E+00
 sweep: dc dc305  end,  cpu clock=  1.48E+00 peak memory=       230 mb
 output: output/rram.sp.sw0
 sweep: dc dc306  begin, #sweeps= 101 cpu clock=  1.49E+00
 sweep: dc dc306  end,  cpu clock=  1.49E+00 peak memory=       230 mb
 output: output/rram.sp.sw0
 sweep: dc dc307  begin, #sweeps= 101 cpu clock=  1.49E+00
 sweep: dc dc307  end,  cpu clock=  1.49E+00 peak memory=       230 mb
 output: output/rram.sp.sw0
 sweep: dc dc308  begin, #sweeps= 101 cpu clock=  1.49E+00
 sweep: dc dc308  end,  cpu clock=  1.49E+00 peak memory=       230 mb
 output: output/rram.sp.sw0
 sweep: dc dc309  begin, #sweeps= 101 cpu clock=  1.49E+00
 sweep: dc dc309  end,  cpu clock=  1.49E+00 peak memory=       230 mb
 output: output/rram.sp.sw0
 sweep: dc dc310  begin, #sweeps= 101 cpu clock=  1.49E+00
 sweep: dc dc310  end,  cpu clock=  1.49E+00 peak memory=       230 mb
 output: output/rram.sp.sw0
 sweep: dc dc311  begin, #sweeps= 101 cpu clock=  1.50E+00
 sweep: dc dc311  end,  cpu clock=  1.50E+00 peak memory=       230 mb
 output: output/rram.sp.sw0
 sweep: dc dc312  begin, #sweeps= 101 cpu clock=  1.50E+00
 sweep: dc dc312  end,  cpu clock=  1.50E+00 peak memory=       230 mb
 output: output/rram.sp.sw0
 sweep: dc dc313  begin, #sweeps= 101 cpu clock=  1.50E+00
 sweep: dc dc313  end,  cpu clock=  1.50E+00 peak memory=       230 mb
 output: output/rram.sp.sw0
 sweep: dc dc314  begin, #sweeps= 101 cpu clock=  1.50E+00
 sweep: dc dc314  end,  cpu clock=  1.50E+00 peak memory=       230 mb
 output: output/rram.sp.sw0
 sweep: dc dc315  begin, #sweeps= 101 cpu clock=  1.50E+00
 sweep: dc dc315  end,  cpu clock=  1.51E+00 peak memory=       230 mb
 output: output/rram.sp.sw0
 sweep: dc dc316  begin, #sweeps= 101 cpu clock=  1.51E+00
 sweep: dc dc316  end,  cpu clock=  1.51E+00 peak memory=       230 mb
 output: output/rram.sp.sw0
 sweep: dc dc317  begin, #sweeps= 101 cpu clock=  1.51E+00
 sweep: dc dc317  end,  cpu clock=  1.51E+00 peak memory=       230 mb
 output: output/rram.sp.sw0
 sweep: dc dc318  begin, #sweeps= 101 cpu clock=  1.51E+00
 sweep: dc dc318  end,  cpu clock=  1.51E+00 peak memory=       230 mb
 output: output/rram.sp.sw0
 sweep: dc dc319  begin, #sweeps= 101 cpu clock=  1.51E+00
 sweep: dc dc319  end,  cpu clock=  1.51E+00 peak memory=       230 mb
 output: output/rram.sp.sw0
 sweep: dc dc320  begin, #sweeps= 101 cpu clock=  1.51E+00
 sweep: dc dc320  end,  cpu clock=  1.52E+00 peak memory=       230 mb
 output: output/rram.sp.sw0
 sweep: dc dc321  begin, #sweeps= 101 cpu clock=  1.52E+00
 sweep: dc dc321  end,  cpu clock=  1.52E+00 peak memory=       230 mb
 output: output/rram.sp.sw0
 sweep: dc dc322  begin, #sweeps= 101 cpu clock=  1.52E+00
 sweep: dc dc322  end,  cpu clock=  1.52E+00 peak memory=       230 mb
 output: output/rram.sp.sw0
 sweep: dc dc323  begin, #sweeps= 101 cpu clock=  1.52E+00
 sweep: dc dc323  end,  cpu clock=  1.52E+00 peak memory=       230 mb
 output: output/rram.sp.sw0
 sweep: dc dc324  begin, #sweeps= 101 cpu clock=  1.52E+00
 sweep: dc dc324  end,  cpu clock=  1.52E+00 peak memory=       230 mb
 output: output/rram.sp.sw0
 sweep: dc dc325  begin, #sweeps= 101 cpu clock=  1.52E+00
 sweep: dc dc325  end,  cpu clock=  1.53E+00 peak memory=       230 mb
 output: output/rram.sp.sw0
 sweep: dc dc326  begin, #sweeps= 101 cpu clock=  1.53E+00
 sweep: dc dc326  end,  cpu clock=  1.53E+00 peak memory=       230 mb
 output: output/rram.sp.sw0
 sweep: dc dc327  begin, #sweeps= 101 cpu clock=  1.53E+00
 sweep: dc dc327  end,  cpu clock=  1.53E+00 peak memory=       230 mb
 output: output/rram.sp.sw0
 sweep: dc dc328  begin, #sweeps= 101 cpu clock=  1.53E+00
 sweep: dc dc328  end,  cpu clock=  1.53E+00 peak memory=       230 mb
 output: output/rram.sp.sw0
 sweep: dc dc329  begin, #sweeps= 101 cpu clock=  1.53E+00
 sweep: dc dc329  end,  cpu clock=  1.53E+00 peak memory=       230 mb
 output: output/rram.sp.sw0
 sweep: dc dc330  begin, #sweeps= 101 cpu clock=  1.53E+00
 sweep: dc dc330  end,  cpu clock=  1.54E+00 peak memory=       230 mb
 output: output/rram.sp.sw0
 sweep: dc dc331  begin, #sweeps= 101 cpu clock=  1.54E+00
 sweep: dc dc331  end,  cpu clock=  1.54E+00 peak memory=       230 mb
 output: output/rram.sp.sw0
 sweep: dc dc332  begin, #sweeps= 101 cpu clock=  1.54E+00
 sweep: dc dc332  end,  cpu clock=  1.54E+00 peak memory=       230 mb
 output: output/rram.sp.sw0
 sweep: dc dc333  begin, #sweeps= 101 cpu clock=  1.54E+00
 sweep: dc dc333  end,  cpu clock=  1.54E+00 peak memory=       230 mb
 output: output/rram.sp.sw0
 sweep: dc dc334  begin, #sweeps= 101 cpu clock=  1.54E+00
 sweep: dc dc334  end,  cpu clock=  1.54E+00 peak memory=       230 mb
 output: output/rram.sp.sw0
 sweep: dc dc335  begin, #sweeps= 101 cpu clock=  1.54E+00
 sweep: dc dc335  end,  cpu clock=  1.55E+00 peak memory=       230 mb
 output: output/rram.sp.sw0
 sweep: dc dc336  begin, #sweeps= 101 cpu clock=  1.55E+00
 sweep: dc dc336  end,  cpu clock=  1.55E+00 peak memory=       230 mb
 output: output/rram.sp.sw0
 sweep: dc dc337  begin, #sweeps= 101 cpu clock=  1.55E+00
 sweep: dc dc337  end,  cpu clock=  1.55E+00 peak memory=       230 mb
 output: output/rram.sp.sw0
 sweep: dc dc338  begin, #sweeps= 101 cpu clock=  1.55E+00
 sweep: dc dc338  end,  cpu clock=  1.55E+00 peak memory=       230 mb
 output: output/rram.sp.sw0
 sweep: dc dc339  begin, #sweeps= 101 cpu clock=  1.55E+00
 sweep: dc dc339  end,  cpu clock=  1.55E+00 peak memory=       230 mb
 output: output/rram.sp.sw0
 sweep: dc dc340  begin, #sweeps= 101 cpu clock=  1.55E+00
 sweep: dc dc340  end,  cpu clock=  1.55E+00 peak memory=       230 mb
 output: output/rram.sp.sw0
 sweep: dc dc341  begin, #sweeps= 101 cpu clock=  1.56E+00
 sweep: dc dc341  end,  cpu clock=  1.56E+00 peak memory=       230 mb
 output: output/rram.sp.sw0
 sweep: dc dc342  begin, #sweeps= 101 cpu clock=  1.56E+00
 sweep: dc dc342  end,  cpu clock=  1.56E+00 peak memory=       230 mb
 output: output/rram.sp.sw0
 sweep: dc dc343  begin, #sweeps= 101 cpu clock=  1.56E+00
 sweep: dc dc343  end,  cpu clock=  1.56E+00 peak memory=       230 mb
 output: output/rram.sp.sw0
 sweep: dc dc344  begin, #sweeps= 101 cpu clock=  1.56E+00
 sweep: dc dc344  end,  cpu clock=  1.56E+00 peak memory=       230 mb
 output: output/rram.sp.sw0
 sweep: dc dc345  begin, #sweeps= 101 cpu clock=  1.56E+00
 sweep: dc dc345  end,  cpu clock=  1.57E+00 peak memory=       230 mb
 output: output/rram.sp.sw0
 sweep: dc dc346  begin, #sweeps= 101 cpu clock=  1.57E+00
 sweep: dc dc346  end,  cpu clock=  1.57E+00 peak memory=       230 mb
 output: output/rram.sp.sw0
 sweep: dc dc347  begin, #sweeps= 101 cpu clock=  1.57E+00
 sweep: dc dc347  end,  cpu clock=  1.57E+00 peak memory=       230 mb
 output: output/rram.sp.sw0
 sweep: dc dc348  begin, #sweeps= 101 cpu clock=  1.57E+00
 sweep: dc dc348  end,  cpu clock=  1.57E+00 peak memory=       230 mb
 output: output/rram.sp.sw0
 sweep: dc dc349  begin, #sweeps= 101 cpu clock=  1.57E+00
 sweep: dc dc349  end,  cpu clock=  1.57E+00 peak memory=       230 mb
 output: output/rram.sp.sw0
 sweep: dc dc350  begin, #sweeps= 101 cpu clock=  1.57E+00
 sweep: dc dc350  end,  cpu clock=  1.57E+00 peak memory=       230 mb
 output: output/rram.sp.sw0
 sweep: dc dc351  begin, #sweeps= 101 cpu clock=  1.57E+00
 sweep: dc dc351  end,  cpu clock=  1.58E+00 peak memory=       230 mb
 output: output/rram.sp.sw0
 sweep: dc dc352  begin, #sweeps= 101 cpu clock=  1.58E+00
 sweep: dc dc352  end,  cpu clock=  1.58E+00 peak memory=       230 mb
 output: output/rram.sp.sw0
 sweep: dc dc353  begin, #sweeps= 101 cpu clock=  1.58E+00
 sweep: dc dc353  end,  cpu clock=  1.58E+00 peak memory=       230 mb
 output: output/rram.sp.sw0
 sweep: dc dc354  begin, #sweeps= 101 cpu clock=  1.58E+00
 sweep: dc dc354  end,  cpu clock=  1.58E+00 peak memory=       230 mb
 output: output/rram.sp.sw0
 sweep: dc dc355  begin, #sweeps= 101 cpu clock=  1.58E+00
 sweep: dc dc355  end,  cpu clock=  1.58E+00 peak memory=       230 mb
 output: output/rram.sp.sw0
 sweep: dc dc356  begin, #sweeps= 101 cpu clock=  1.58E+00
 sweep: dc dc356  end,  cpu clock=  1.59E+00 peak memory=       230 mb
 output: output/rram.sp.sw0
 sweep: dc dc357  begin, #sweeps= 101 cpu clock=  1.59E+00
 sweep: dc dc357  end,  cpu clock=  1.59E+00 peak memory=       230 mb
 output: output/rram.sp.sw0
 sweep: dc dc358  begin, #sweeps= 101 cpu clock=  1.59E+00
 sweep: dc dc358  end,  cpu clock=  1.59E+00 peak memory=       230 mb
 output: output/rram.sp.sw0
 sweep: dc dc359  begin, #sweeps= 101 cpu clock=  1.59E+00
 sweep: dc dc359  end,  cpu clock=  1.59E+00 peak memory=       230 mb
 output: output/rram.sp.sw0
 sweep: dc dc360  begin, #sweeps= 101 cpu clock=  1.59E+00
 sweep: dc dc360  end,  cpu clock=  1.59E+00 peak memory=       230 mb
 output: output/rram.sp.sw0
 sweep: dc dc361  begin, #sweeps= 101 cpu clock=  1.59E+00
 sweep: dc dc361  end,  cpu clock=  1.59E+00 peak memory=       230 mb
 output: output/rram.sp.sw0
 sweep: dc dc362  begin, #sweeps= 101 cpu clock=  1.60E+00
 sweep: dc dc362  end,  cpu clock=  1.60E+00 peak memory=       230 mb
 output: output/rram.sp.sw0
 sweep: dc dc363  begin, #sweeps= 101 cpu clock=  1.60E+00
 sweep: dc dc363  end,  cpu clock=  1.60E+00 peak memory=       230 mb
 output: output/rram.sp.sw0
 sweep: dc dc364  begin, #sweeps= 101 cpu clock=  1.60E+00
 sweep: dc dc364  end,  cpu clock=  1.60E+00 peak memory=       230 mb
 output: output/rram.sp.sw0
 sweep: dc dc365  begin, #sweeps= 101 cpu clock=  1.60E+00
 sweep: dc dc365  end,  cpu clock=  1.60E+00 peak memory=       230 mb
 output: output/rram.sp.sw0
 sweep: dc dc366  begin, #sweeps= 101 cpu clock=  1.60E+00
 sweep: dc dc366  end,  cpu clock=  1.60E+00 peak memory=       230 mb
 output: output/rram.sp.sw0
 sweep: dc dc367  begin, #sweeps= 101 cpu clock=  1.61E+00
 sweep: dc dc367  end,  cpu clock=  1.61E+00 peak memory=       230 mb
 output: output/rram.sp.sw0
 sweep: dc dc368  begin, #sweeps= 101 cpu clock=  1.61E+00
 sweep: dc dc368  end,  cpu clock=  1.61E+00 peak memory=       230 mb
 output: output/rram.sp.sw0
 sweep: dc dc369  begin, #sweeps= 101 cpu clock=  1.61E+00
 sweep: dc dc369  end,  cpu clock=  1.61E+00 peak memory=       230 mb
 output: output/rram.sp.sw0
 sweep: dc dc370  begin, #sweeps= 101 cpu clock=  1.61E+00
 sweep: dc dc370  end,  cpu clock=  1.61E+00 peak memory=       230 mb
 output: output/rram.sp.sw0
 sweep: dc dc371  begin, #sweeps= 101 cpu clock=  1.61E+00
 sweep: dc dc371  end,  cpu clock=  1.61E+00 peak memory=       230 mb
 output: output/rram.sp.sw0
 sweep: dc dc372  begin, #sweeps= 101 cpu clock=  1.61E+00
 sweep: dc dc372  end,  cpu clock=  1.62E+00 peak memory=       230 mb
 output: output/rram.sp.sw0
 sweep: dc dc373  begin, #sweeps= 101 cpu clock=  1.62E+00
 sweep: dc dc373  end,  cpu clock=  1.62E+00 peak memory=       230 mb
 output: output/rram.sp.sw0
 sweep: dc dc374  begin, #sweeps= 101 cpu clock=  1.62E+00
 sweep: dc dc374  end,  cpu clock=  1.62E+00 peak memory=       230 mb
 output: output/rram.sp.sw0
 sweep: dc dc375  begin, #sweeps= 101 cpu clock=  1.62E+00
 sweep: dc dc375  end,  cpu clock=  1.62E+00 peak memory=       230 mb
 output: output/rram.sp.sw0
 sweep: dc dc376  begin, #sweeps= 101 cpu clock=  1.62E+00
 sweep: dc dc376  end,  cpu clock=  1.62E+00 peak memory=       230 mb
 output: output/rram.sp.sw0
 sweep: dc dc377  begin, #sweeps= 101 cpu clock=  1.62E+00
 sweep: dc dc377  end,  cpu clock=  1.63E+00 peak memory=       230 mb
 output: output/rram.sp.sw0
 sweep: dc dc378  begin, #sweeps= 101 cpu clock=  1.63E+00
 sweep: dc dc378  end,  cpu clock=  1.63E+00 peak memory=       230 mb
 output: output/rram.sp.sw0
 sweep: dc dc379  begin, #sweeps= 101 cpu clock=  1.63E+00
 sweep: dc dc379  end,  cpu clock=  1.63E+00 peak memory=       230 mb
 output: output/rram.sp.sw0
 sweep: dc dc380  begin, #sweeps= 101 cpu clock=  1.63E+00
 sweep: dc dc380  end,  cpu clock=  1.63E+00 peak memory=       230 mb
 output: output/rram.sp.sw0
 sweep: dc dc381  begin, #sweeps= 101 cpu clock=  1.63E+00
 sweep: dc dc381  end,  cpu clock=  1.63E+00 peak memory=       230 mb
 output: output/rram.sp.sw0
 sweep: dc dc382  begin, #sweeps= 101 cpu clock=  1.63E+00
 sweep: dc dc382  end,  cpu clock=  1.64E+00 peak memory=       230 mb
 output: output/rram.sp.sw0
 sweep: dc dc383  begin, #sweeps= 101 cpu clock=  1.64E+00
 sweep: dc dc383  end,  cpu clock=  1.64E+00 peak memory=       230 mb
 output: output/rram.sp.sw0
 sweep: dc dc384  begin, #sweeps= 101 cpu clock=  1.64E+00
 sweep: dc dc384  end,  cpu clock=  1.64E+00 peak memory=       230 mb
 output: output/rram.sp.sw0
 sweep: dc dc385  begin, #sweeps= 101 cpu clock=  1.64E+00
 sweep: dc dc385  end,  cpu clock=  1.64E+00 peak memory=       230 mb
 output: output/rram.sp.sw0
 sweep: dc dc386  begin, #sweeps= 101 cpu clock=  1.64E+00
 sweep: dc dc386  end,  cpu clock=  1.64E+00 peak memory=       230 mb
 output: output/rram.sp.sw0
 sweep: dc dc387  begin, #sweeps= 101 cpu clock=  1.64E+00
 sweep: dc dc387  end,  cpu clock=  1.64E+00 peak memory=       230 mb
 output: output/rram.sp.sw0
 sweep: dc dc388  begin, #sweeps= 101 cpu clock=  1.64E+00
 sweep: dc dc388  end,  cpu clock=  1.65E+00 peak memory=       230 mb
 output: output/rram.sp.sw0
 sweep: dc dc389  begin, #sweeps= 101 cpu clock=  1.65E+00
 sweep: dc dc389  end,  cpu clock=  1.65E+00 peak memory=       230 mb
 output: output/rram.sp.sw0
 sweep: dc dc390  begin, #sweeps= 101 cpu clock=  1.65E+00
 sweep: dc dc390  end,  cpu clock=  1.65E+00 peak memory=       230 mb
 output: output/rram.sp.sw0
 sweep: dc dc391  begin, #sweeps= 101 cpu clock=  1.65E+00
 sweep: dc dc391  end,  cpu clock=  1.65E+00 peak memory=       230 mb
 output: output/rram.sp.sw0
 sweep: dc dc392  begin, #sweeps= 101 cpu clock=  1.65E+00
 sweep: dc dc392  end,  cpu clock=  1.65E+00 peak memory=       230 mb
 output: output/rram.sp.sw0
 sweep: dc dc393  begin, #sweeps= 101 cpu clock=  1.65E+00
 sweep: dc dc393  end,  cpu clock=  1.66E+00 peak memory=       230 mb
 output: output/rram.sp.sw0
 sweep: dc dc394  begin, #sweeps= 101 cpu clock=  1.66E+00
 sweep: dc dc394  end,  cpu clock=  1.66E+00 peak memory=       230 mb
 output: output/rram.sp.sw0
 sweep: dc dc395  begin, #sweeps= 101 cpu clock=  1.66E+00
 sweep: dc dc395  end,  cpu clock=  1.66E+00 peak memory=       230 mb
 output: output/rram.sp.sw0
 sweep: dc dc396  begin, #sweeps= 101 cpu clock=  1.66E+00
 sweep: dc dc396  end,  cpu clock=  1.66E+00 peak memory=       230 mb
 output: output/rram.sp.sw0
 sweep: dc dc397  begin, #sweeps= 101 cpu clock=  1.66E+00
 sweep: dc dc397  end,  cpu clock=  1.66E+00 peak memory=       230 mb
 output: output/rram.sp.sw0
 sweep: dc dc398  begin, #sweeps= 101 cpu clock=  1.66E+00
 sweep: dc dc398  end,  cpu clock=  1.66E+00 peak memory=       230 mb
 output: output/rram.sp.sw0
 sweep: dc dc399  begin, #sweeps= 101 cpu clock=  1.66E+00
 sweep: dc dc399  end,  cpu clock=  1.67E+00 peak memory=       230 mb
 output: output/rram.sp.sw0
 sweep: dc dc400  begin, #sweeps= 101 cpu clock=  1.67E+00
 sweep: dc dc400  end,  cpu clock=  1.67E+00 peak memory=       230 mb
 output: output/rram.sp.sw0
 sweep: dc dc401  begin, #sweeps= 101 cpu clock=  1.67E+00
 sweep: dc dc401  end,  cpu clock=  1.67E+00 peak memory=       230 mb
 output: output/rram.sp.sw0
 sweep: dc dc402  begin, #sweeps= 101 cpu clock=  1.67E+00
 sweep: dc dc402  end,  cpu clock=  1.67E+00 peak memory=       230 mb
 output: output/rram.sp.sw0
 sweep: dc dc403  begin, #sweeps= 101 cpu clock=  1.67E+00
 sweep: dc dc403  end,  cpu clock=  1.67E+00 peak memory=       230 mb
 output: output/rram.sp.sw0
 sweep: dc dc404  begin, #sweeps= 101 cpu clock=  1.67E+00
 sweep: dc dc404  end,  cpu clock=  1.67E+00 peak memory=       230 mb
 output: output/rram.sp.sw0
 sweep: dc dc405  begin, #sweeps= 101 cpu clock=  1.67E+00
 sweep: dc dc405  end,  cpu clock=  1.68E+00 peak memory=       230 mb
 output: output/rram.sp.sw0
 sweep: dc dc406  begin, #sweeps= 101 cpu clock=  1.68E+00
 sweep: dc dc406  end,  cpu clock=  1.68E+00 peak memory=       230 mb
 output: output/rram.sp.sw0
 sweep: dc dc407  begin, #sweeps= 101 cpu clock=  1.68E+00
 sweep: dc dc407  end,  cpu clock=  1.68E+00 peak memory=       230 mb
 output: output/rram.sp.sw0
 sweep: dc dc408  begin, #sweeps= 101 cpu clock=  1.68E+00
 sweep: dc dc408  end,  cpu clock=  1.68E+00 peak memory=       230 mb
 output: output/rram.sp.sw0
 sweep: dc dc409  begin, #sweeps= 101 cpu clock=  1.68E+00
 sweep: dc dc409  end,  cpu clock=  1.68E+00 peak memory=       230 mb
 output: output/rram.sp.sw0
 sweep: dc dc410  begin, #sweeps= 101 cpu clock=  1.68E+00
 sweep: dc dc410  end,  cpu clock=  1.68E+00 peak memory=       230 mb
 output: output/rram.sp.sw0
 sweep: dc dc411  begin, #sweeps= 101 cpu clock=  1.69E+00
 sweep: dc dc411  end,  cpu clock=  1.69E+00 peak memory=       230 mb
 output: output/rram.sp.sw0
 sweep: dc dc412  begin, #sweeps= 101 cpu clock=  1.69E+00
 sweep: dc dc412  end,  cpu clock=  1.69E+00 peak memory=       230 mb
 output: output/rram.sp.sw0
 sweep: dc dc413  begin, #sweeps= 101 cpu clock=  1.69E+00
 sweep: dc dc413  end,  cpu clock=  1.69E+00 peak memory=       230 mb
 output: output/rram.sp.sw0
 sweep: dc dc414  begin, #sweeps= 101 cpu clock=  1.69E+00
 sweep: dc dc414  end,  cpu clock=  1.69E+00 peak memory=       230 mb
 output: output/rram.sp.sw0
 sweep: dc dc415  begin, #sweeps= 101 cpu clock=  1.69E+00
 sweep: dc dc415  end,  cpu clock=  1.69E+00 peak memory=       230 mb
 output: output/rram.sp.sw0
 sweep: dc dc416  begin, #sweeps= 101 cpu clock=  1.69E+00
 sweep: dc dc416  end,  cpu clock=  1.70E+00 peak memory=       230 mb
 output: output/rram.sp.sw0
 sweep: dc dc417  begin, #sweeps= 101 cpu clock=  1.70E+00
 sweep: dc dc417  end,  cpu clock=  1.70E+00 peak memory=       230 mb
 output: output/rram.sp.sw0
 sweep: dc dc418  begin, #sweeps= 101 cpu clock=  1.70E+00
 sweep: dc dc418  end,  cpu clock=  1.70E+00 peak memory=       230 mb
 output: output/rram.sp.sw0
 sweep: dc dc419  begin, #sweeps= 101 cpu clock=  1.70E+00
 sweep: dc dc419  end,  cpu clock=  1.70E+00 peak memory=       230 mb
 output: output/rram.sp.sw0
 sweep: dc dc420  begin, #sweeps= 101 cpu clock=  1.70E+00
 sweep: dc dc420  end,  cpu clock=  1.70E+00 peak memory=       230 mb
 output: output/rram.sp.sw0
 sweep: dc dc421  begin, #sweeps= 101 cpu clock=  1.70E+00
 sweep: dc dc421  end,  cpu clock=  1.70E+00 peak memory=       230 mb
 output: output/rram.sp.sw0
 sweep: dc dc422  begin, #sweeps= 101 cpu clock=  1.70E+00
 sweep: dc dc422  end,  cpu clock=  1.71E+00 peak memory=       230 mb
 output: output/rram.sp.sw0
 sweep: dc dc423  begin, #sweeps= 101 cpu clock=  1.71E+00
 sweep: dc dc423  end,  cpu clock=  1.71E+00 peak memory=       230 mb
 output: output/rram.sp.sw0
 sweep: dc dc424  begin, #sweeps= 101 cpu clock=  1.71E+00
 sweep: dc dc424  end,  cpu clock=  1.71E+00 peak memory=       230 mb
 output: output/rram.sp.sw0
 sweep: dc dc425  begin, #sweeps= 101 cpu clock=  1.71E+00
 sweep: dc dc425  end,  cpu clock=  1.71E+00 peak memory=       230 mb
 output: output/rram.sp.sw0
 sweep: dc dc426  begin, #sweeps= 101 cpu clock=  1.71E+00
 sweep: dc dc426  end,  cpu clock=  1.71E+00 peak memory=       230 mb
 output: output/rram.sp.sw0
 sweep: dc dc427  begin, #sweeps= 101 cpu clock=  1.71E+00
 sweep: dc dc427  end,  cpu clock=  1.72E+00 peak memory=       230 mb
 output: output/rram.sp.sw0
 sweep: dc dc428  begin, #sweeps= 101 cpu clock=  1.72E+00
 sweep: dc dc428  end,  cpu clock=  1.72E+00 peak memory=       230 mb
 output: output/rram.sp.sw0
 sweep: dc dc429  begin, #sweeps= 101 cpu clock=  1.72E+00
 sweep: dc dc429  end,  cpu clock=  1.72E+00 peak memory=       230 mb
 output: output/rram.sp.sw0
 sweep: dc dc430  begin, #sweeps= 101 cpu clock=  1.72E+00
 sweep: dc dc430  end,  cpu clock=  1.72E+00 peak memory=       230 mb
 output: output/rram.sp.sw0
 sweep: dc dc431  begin, #sweeps= 101 cpu clock=  1.72E+00
 sweep: dc dc431  end,  cpu clock=  1.72E+00 peak memory=       230 mb
 output: output/rram.sp.sw0
 sweep: dc dc432  begin, #sweeps= 101 cpu clock=  1.72E+00
 sweep: dc dc432  end,  cpu clock=  1.73E+00 peak memory=       230 mb
 output: output/rram.sp.sw0
 sweep: dc dc433  begin, #sweeps= 101 cpu clock=  1.73E+00
 sweep: dc dc433  end,  cpu clock=  1.73E+00 peak memory=       230 mb
 output: output/rram.sp.sw0
 sweep: dc dc434  begin, #sweeps= 101 cpu clock=  1.73E+00
 sweep: dc dc434  end,  cpu clock=  1.73E+00 peak memory=       230 mb
 output: output/rram.sp.sw0
 sweep: dc dc435  begin, #sweeps= 101 cpu clock=  1.73E+00
 sweep: dc dc435  end,  cpu clock=  1.73E+00 peak memory=       230 mb
 output: output/rram.sp.sw0
 sweep: dc dc436  begin, #sweeps= 101 cpu clock=  1.73E+00
 sweep: dc dc436  end,  cpu clock=  1.73E+00 peak memory=       230 mb
 output: output/rram.sp.sw0
 sweep: dc dc437  begin, #sweeps= 101 cpu clock=  1.73E+00
 sweep: dc dc437  end,  cpu clock=  1.74E+00 peak memory=       230 mb
 output: output/rram.sp.sw0
 sweep: dc dc438  begin, #sweeps= 101 cpu clock=  1.74E+00
 sweep: dc dc438  end,  cpu clock=  1.74E+00 peak memory=       230 mb
 output: output/rram.sp.sw0
 sweep: dc dc439  begin, #sweeps= 101 cpu clock=  1.74E+00
 sweep: dc dc439  end,  cpu clock=  1.74E+00 peak memory=       230 mb
 output: output/rram.sp.sw0
 sweep: dc dc440  begin, #sweeps= 101 cpu clock=  1.74E+00
 sweep: dc dc440  end,  cpu clock=  1.74E+00 peak memory=       230 mb
 output: output/rram.sp.sw0
 sweep: dc dc441  begin, #sweeps= 101 cpu clock=  1.74E+00
 sweep: dc dc441  end,  cpu clock=  1.74E+00 peak memory=       230 mb
 output: output/rram.sp.sw0
 sweep: dc dc442  begin, #sweeps= 101 cpu clock=  1.74E+00
 sweep: dc dc442  end,  cpu clock=  1.75E+00 peak memory=       230 mb
 output: output/rram.sp.sw0
 sweep: dc dc443  begin, #sweeps= 101 cpu clock=  1.75E+00
 sweep: dc dc443  end,  cpu clock=  1.75E+00 peak memory=       230 mb
 output: output/rram.sp.sw0
 sweep: dc dc444  begin, #sweeps= 101 cpu clock=  1.75E+00
 sweep: dc dc444  end,  cpu clock=  1.75E+00 peak memory=       230 mb
 output: output/rram.sp.sw0
 sweep: dc dc445  begin, #sweeps= 101 cpu clock=  1.75E+00
 sweep: dc dc445  end,  cpu clock=  1.75E+00 peak memory=       230 mb
 output: output/rram.sp.sw0
 sweep: dc dc446  begin, #sweeps= 101 cpu clock=  1.75E+00
 sweep: dc dc446  end,  cpu clock=  1.75E+00 peak memory=       230 mb
 output: output/rram.sp.sw0
 sweep: dc dc447  begin, #sweeps= 101 cpu clock=  1.75E+00
 sweep: dc dc447  end,  cpu clock=  1.76E+00 peak memory=       230 mb
 output: output/rram.sp.sw0
 sweep: dc dc448  begin, #sweeps= 101 cpu clock=  1.76E+00
 sweep: dc dc448  end,  cpu clock=  1.76E+00 peak memory=       230 mb
 output: output/rram.sp.sw0
 sweep: dc dc449  begin, #sweeps= 101 cpu clock=  1.76E+00
 sweep: dc dc449  end,  cpu clock=  1.76E+00 peak memory=       230 mb
 output: output/rram.sp.sw0
 sweep: dc dc450  begin, #sweeps= 101 cpu clock=  1.76E+00
 sweep: dc dc450  end,  cpu clock=  1.76E+00 peak memory=       230 mb
 output: output/rram.sp.sw0
 sweep: dc dc451  begin, #sweeps= 101 cpu clock=  1.76E+00
 sweep: dc dc451  end,  cpu clock=  1.76E+00 peak memory=       230 mb
 output: output/rram.sp.sw0
 sweep: dc dc452  begin, #sweeps= 101 cpu clock=  1.76E+00
 sweep: dc dc452  end,  cpu clock=  1.76E+00 peak memory=       230 mb
 output: output/rram.sp.sw0
 sweep: dc dc453  begin, #sweeps= 101 cpu clock=  1.77E+00
 sweep: dc dc453  end,  cpu clock=  1.77E+00 peak memory=       230 mb
 output: output/rram.sp.sw0
 sweep: dc dc454  begin, #sweeps= 101 cpu clock=  1.77E+00
 sweep: dc dc454  end,  cpu clock=  1.77E+00 peak memory=       230 mb
 output: output/rram.sp.sw0
 sweep: dc dc455  begin, #sweeps= 101 cpu clock=  1.77E+00
 sweep: dc dc455  end,  cpu clock=  1.77E+00 peak memory=       230 mb
 output: output/rram.sp.sw0
 sweep: dc dc456  begin, #sweeps= 101 cpu clock=  1.77E+00
 sweep: dc dc456  end,  cpu clock=  1.77E+00 peak memory=       230 mb
 output: output/rram.sp.sw0
 sweep: dc dc457  begin, #sweeps= 101 cpu clock=  1.77E+00
 sweep: dc dc457  end,  cpu clock=  1.78E+00 peak memory=       230 mb
 output: output/rram.sp.sw0
 sweep: dc dc458  begin, #sweeps= 101 cpu clock=  1.78E+00
 sweep: dc dc458  end,  cpu clock=  1.78E+00 peak memory=       230 mb
 output: output/rram.sp.sw0
 sweep: dc dc459  begin, #sweeps= 101 cpu clock=  1.78E+00
 sweep: dc dc459  end,  cpu clock=  1.78E+00 peak memory=       230 mb
 output: output/rram.sp.sw0
 sweep: dc dc460  begin, #sweeps= 101 cpu clock=  1.78E+00
 sweep: dc dc460  end,  cpu clock=  1.78E+00 peak memory=       230 mb
 output: output/rram.sp.sw0
 sweep: dc dc461  begin, #sweeps= 101 cpu clock=  1.78E+00
 sweep: dc dc461  end,  cpu clock=  1.78E+00 peak memory=       230 mb
 output: output/rram.sp.sw0
 sweep: dc dc462  begin, #sweeps= 101 cpu clock=  1.78E+00
 sweep: dc dc462  end,  cpu clock=  1.78E+00 peak memory=       230 mb
 output: output/rram.sp.sw0
 sweep: dc dc463  begin, #sweeps= 101 cpu clock=  1.79E+00
 sweep: dc dc463  end,  cpu clock=  1.79E+00 peak memory=       230 mb
 output: output/rram.sp.sw0
 sweep: dc dc464  begin, #sweeps= 101 cpu clock=  1.79E+00
 sweep: dc dc464  end,  cpu clock=  1.79E+00 peak memory=       230 mb
 output: output/rram.sp.sw0
 sweep: dc dc465  begin, #sweeps= 101 cpu clock=  1.79E+00
 sweep: dc dc465  end,  cpu clock=  1.79E+00 peak memory=       230 mb
 output: output/rram.sp.sw0
 sweep: dc dc466  begin, #sweeps= 101 cpu clock=  1.79E+00
 sweep: dc dc466  end,  cpu clock=  1.79E+00 peak memory=       230 mb
 output: output/rram.sp.sw0
 sweep: dc dc467  begin, #sweeps= 101 cpu clock=  1.79E+00
 sweep: dc dc467  end,  cpu clock=  1.79E+00 peak memory=       230 mb
 output: output/rram.sp.sw0
 sweep: dc dc468  begin, #sweeps= 101 cpu clock=  1.79E+00
 sweep: dc dc468  end,  cpu clock=  1.79E+00 peak memory=       230 mb
 output: output/rram.sp.sw0
 sweep: dc dc469  begin, #sweeps= 101 cpu clock=  1.79E+00
 sweep: dc dc469  end,  cpu clock=  1.80E+00 peak memory=       230 mb
 output: output/rram.sp.sw0
 sweep: dc dc470  begin, #sweeps= 101 cpu clock=  1.80E+00
 sweep: dc dc470  end,  cpu clock=  1.80E+00 peak memory=       230 mb
 output: output/rram.sp.sw0
 sweep: dc dc471  begin, #sweeps= 101 cpu clock=  1.80E+00
 sweep: dc dc471  end,  cpu clock=  1.80E+00 peak memory=       230 mb
 output: output/rram.sp.sw0
 sweep: dc dc472  begin, #sweeps= 101 cpu clock=  1.80E+00
 sweep: dc dc472  end,  cpu clock=  1.80E+00 peak memory=       230 mb
 output: output/rram.sp.sw0
 sweep: dc dc473  begin, #sweeps= 101 cpu clock=  1.80E+00
 sweep: dc dc473  end,  cpu clock=  1.80E+00 peak memory=       230 mb
 output: output/rram.sp.sw0
 sweep: dc dc474  begin, #sweeps= 101 cpu clock=  1.80E+00
 sweep: dc dc474  end,  cpu clock=  1.81E+00 peak memory=       230 mb
 output: output/rram.sp.sw0
 sweep: dc dc475  begin, #sweeps= 101 cpu clock=  1.81E+00
 sweep: dc dc475  end,  cpu clock=  1.81E+00 peak memory=       230 mb
 output: output/rram.sp.sw0
 sweep: dc dc476  begin, #sweeps= 101 cpu clock=  1.81E+00
 sweep: dc dc476  end,  cpu clock=  1.81E+00 peak memory=       230 mb
 output: output/rram.sp.sw0
 sweep: dc dc477  begin, #sweeps= 101 cpu clock=  1.81E+00
 sweep: dc dc477  end,  cpu clock=  1.81E+00 peak memory=       230 mb
 output: output/rram.sp.sw0
 sweep: dc dc478  begin, #sweeps= 101 cpu clock=  1.81E+00
 sweep: dc dc478  end,  cpu clock=  1.81E+00 peak memory=       230 mb
 output: output/rram.sp.sw0
 sweep: dc dc479  begin, #sweeps= 101 cpu clock=  1.81E+00
 sweep: dc dc479  end,  cpu clock=  1.82E+00 peak memory=       230 mb
 output: output/rram.sp.sw0
 sweep: dc dc480  begin, #sweeps= 101 cpu clock=  1.82E+00
 sweep: dc dc480  end,  cpu clock=  1.82E+00 peak memory=       230 mb
 output: output/rram.sp.sw0
 sweep: dc dc481  begin, #sweeps= 101 cpu clock=  1.82E+00
 sweep: dc dc481  end,  cpu clock=  1.82E+00 peak memory=       230 mb
 output: output/rram.sp.sw0
 sweep: dc dc482  begin, #sweeps= 101 cpu clock=  1.82E+00
 sweep: dc dc482  end,  cpu clock=  1.82E+00 peak memory=       230 mb
 output: output/rram.sp.sw0
 sweep: dc dc483  begin, #sweeps= 101 cpu clock=  1.82E+00
 sweep: dc dc483  end,  cpu clock=  1.82E+00 peak memory=       230 mb
 output: output/rram.sp.sw0
 sweep: dc dc484  begin, #sweeps= 101 cpu clock=  1.82E+00
 sweep: dc dc484  end,  cpu clock=  1.83E+00 peak memory=       230 mb
 output: output/rram.sp.sw0
 sweep: dc dc485  begin, #sweeps= 101 cpu clock=  1.83E+00
 sweep: dc dc485  end,  cpu clock=  1.83E+00 peak memory=       230 mb
 output: output/rram.sp.sw0
 sweep: dc dc486  begin, #sweeps= 101 cpu clock=  1.83E+00
 sweep: dc dc486  end,  cpu clock=  1.83E+00 peak memory=       230 mb
 output: output/rram.sp.sw0
 sweep: dc dc487  begin, #sweeps= 101 cpu clock=  1.83E+00
 sweep: dc dc487  end,  cpu clock=  1.83E+00 peak memory=       230 mb
 output: output/rram.sp.sw0
 sweep: dc dc488  begin, #sweeps= 101 cpu clock=  1.83E+00
 sweep: dc dc488  end,  cpu clock=  1.83E+00 peak memory=       230 mb
 output: output/rram.sp.sw0
 sweep: dc dc489  begin, #sweeps= 101 cpu clock=  1.83E+00
 sweep: dc dc489  end,  cpu clock=  1.83E+00 peak memory=       230 mb
 output: output/rram.sp.sw0
 sweep: dc dc490  begin, #sweeps= 101 cpu clock=  1.83E+00
 sweep: dc dc490  end,  cpu clock=  1.83E+00 peak memory=       230 mb
 output: output/rram.sp.sw0
 sweep: dc dc491  begin, #sweeps= 101 cpu clock=  1.84E+00
 sweep: dc dc491  end,  cpu clock=  1.84E+00 peak memory=       230 mb
 output: output/rram.sp.sw0
 sweep: dc dc492  begin, #sweeps= 101 cpu clock=  1.84E+00
 sweep: dc dc492  end,  cpu clock=  1.84E+00 peak memory=       230 mb
 output: output/rram.sp.sw0
 sweep: dc dc493  begin, #sweeps= 101 cpu clock=  1.84E+00
 sweep: dc dc493  end,  cpu clock=  1.84E+00 peak memory=       230 mb
 output: output/rram.sp.sw0
 sweep: dc dc494  begin, #sweeps= 101 cpu clock=  1.84E+00
[...]
 sweep: dc dc9875 begin, #sweeps= 101 cpu clock=  1.97E+01
 sweep: dc dc9875 end,  cpu clock=  1.97E+01 peak memory=       230 mb
 output: output/rram.sp.sw0
 sweep: dc dc9876 begin, #sweeps= 101 cpu clock=  1.97E+01
 sweep: dc dc9876 end,  cpu clock=  1.97E+01 peak memory=       230 mb
 output: output/rram.sp.sw0
 sweep: dc dc9877 begin, #sweeps= 101 cpu clock=  1.97E+01
 sweep: dc dc9877 end,  cpu clock=  1.97E+01 peak memory=       230 mb
 output: output/rram.sp.sw0
 sweep: dc dc9878 begin, #sweeps= 101 cpu clock=  1.97E+01
 sweep: dc dc9878 end,  cpu clock=  1.97E+01 peak memory=       230 mb
 output: output/rram.sp.sw0
 sweep: dc dc9879 begin, #sweeps= 101 cpu clock=  1.97E+01
 sweep: dc dc9879 end,  cpu clock=  1.97E+01 peak memory=       230 mb
 output: output/rram.sp.sw0
 sweep: dc dc9880 begin, #sweeps= 101 cpu clock=  1.97E+01
 sweep: dc dc9880 end,  cpu clock=  1.97E+01 peak memory=       230 mb
 output: output/rram.sp.sw0
 sweep: dc dc9881 begin, #sweeps= 101 cpu clock=  1.97E+01
 sweep: dc dc9881 end,  cpu clock=  1.97E+01 peak memory=       230 mb
 output: output/rram.sp.sw0
 sweep: dc dc9882 begin, #sweeps= 101 cpu clock=  1.97E+01
 sweep: dc dc9882 end,  cpu clock=  1.97E+01 peak memory=       230 mb
 output: output/rram.sp.sw0
 sweep: dc dc9883 begin, #sweeps= 101 cpu clock=  1.97E+01
 sweep: dc dc9883 end,  cpu clock=  1.97E+01 peak memory=       230 mb
 output: output/rram.sp.sw0
 sweep: dc dc9884 begin, #sweeps= 101 cpu clock=  1.97E+01
 sweep: dc dc9884 end,  cpu clock=  1.97E+01 peak memory=       230 mb
 output: output/rram.sp.sw0
 sweep: dc dc9885 begin, #sweeps= 101 cpu clock=  1.97E+01
 sweep: dc dc9885 end,  cpu clock=  1.97E+01 peak memory=       230 mb
 output: output/rram.sp.sw0
 sweep: dc dc9886 begin, #sweeps= 101 cpu clock=  1.97E+01
 sweep: dc dc9886 end,  cpu clock=  1.97E+01 peak memory=       230 mb
 output: output/rram.sp.sw0
 sweep: dc dc9887 begin, #sweeps= 101 cpu clock=  1.97E+01
 sweep: dc dc9887 end,  cpu clock=  1.97E+01 peak memory=       230 mb
 output: output/rram.sp.sw0
 sweep: dc dc9888 begin, #sweeps= 101 cpu clock=  1.97E+01
 sweep: dc dc9888 end,  cpu clock=  1.97E+01 peak memory=       230 mb
 output: output/rram.sp.sw0
 sweep: dc dc9889 begin, #sweeps= 101 cpu clock=  1.97E+01
 sweep: dc dc9889 end,  cpu clock=  1.97E+01 peak memory=       230 mb
 output: output/rram.sp.sw0
 sweep: dc dc9890 begin, #sweeps= 101 cpu clock=  1.97E+01
 sweep: dc dc9890 end,  cpu clock=  1.97E+01 peak memory=       230 mb
 output: output/rram.sp.sw0
 sweep: dc dc9891 begin, #sweeps= 101 cpu clock=  1.97E+01
 sweep: dc dc9891 end,  cpu clock=  1.97E+01 peak memory=       230 mb
 output: output/rram.sp.sw0
 sweep: dc dc9892 begin, #sweeps= 101 cpu clock=  1.97E+01
 sweep: dc dc9892 end,  cpu clock=  1.97E+01 peak memory=       230 mb
 output: output/rram.sp.sw0
 sweep: dc dc9893 begin, #sweeps= 101 cpu clock=  1.97E+01
 sweep: dc dc9893 end,  cpu clock=  1.97E+01 peak memory=       230 mb
 output: output/rram.sp.sw0
 sweep: dc dc9894 begin, #sweeps= 101 cpu clock=  1.97E+01
 sweep: dc dc9894 end,  cpu clock=  1.97E+01 peak memory=       230 mb
 output: output/rram.sp.sw0
 sweep: dc dc9895 begin, #sweeps= 101 cpu clock=  1.97E+01
 sweep: dc dc9895 end,  cpu clock=  1.97E+01 peak memory=       230 mb
 output: output/rram.sp.sw0
 sweep: dc dc9896 begin, #sweeps= 101 cpu clock=  1.97E+01
 sweep: dc dc9896 end,  cpu clock=  1.97E+01 peak memory=       230 mb
 output: output/rram.sp.sw0
 sweep: dc dc9897 begin, #sweeps= 101 cpu clock=  1.97E+01
 sweep: dc dc9897 end,  cpu clock=  1.97E+01 peak memory=       230 mb
 output: output/rram.sp.sw0
 sweep: dc dc9898 begin, #sweeps= 101 cpu clock=  1.97E+01
 sweep: dc dc9898 end,  cpu clock=  1.97E+01 peak memory=       230 mb
 output: output/rram.sp.sw0
 sweep: dc dc9899 begin, #sweeps= 101 cpu clock=  1.97E+01
 sweep: dc dc9899 end,  cpu clock=  1.97E+01 peak memory=       230 mb
 output: output/rram.sp.sw0
 sweep: dc dc9900 begin, #sweeps= 101 cpu clock=  1.97E+01
 sweep: dc dc9900 end,  cpu clock=  1.97E+01 peak memory=       230 mb
 output: output/rram.sp.sw0
 sweep: dc dc9901 begin, #sweeps= 101 cpu clock=  1.97E+01
 sweep: dc dc9901 end,  cpu clock=  1.97E+01 peak memory=       230 mb
 output: output/rram.sp.sw0
 sweep: dc dc9902 begin, #sweeps= 101 cpu clock=  1.97E+01
 sweep: dc dc9902 end,  cpu clock=  1.97E+01 peak memory=       230 mb
 output: output/rram.sp.sw0
 sweep: dc dc9903 begin, #sweeps= 101 cpu clock=  1.97E+01
 sweep: dc dc9903 end,  cpu clock=  1.97E+01 peak memory=       230 mb
 output: output/rram.sp.sw0
 sweep: dc dc9904 begin, #sweeps= 101 cpu clock=  1.97E+01
 sweep: dc dc9904 end,  cpu clock=  1.97E+01 peak memory=       230 mb
 output: output/rram.sp.sw0
 sweep: dc dc9905 begin, #sweeps= 101 cpu clock=  1.97E+01
 sweep: dc dc9905 end,  cpu clock=  1.97E+01 peak memory=       230 mb
 output: output/rram.sp.sw0
 sweep: dc dc9906 begin, #sweeps= 101 cpu clock=  1.97E+01
 sweep: dc dc9906 end,  cpu clock=  1.97E+01 peak memory=       230 mb
 output: output/rram.sp.sw0
 sweep: dc dc9907 begin, #sweeps= 101 cpu clock=  1.97E+01
 sweep: dc dc9907 end,  cpu clock=  1.97E+01 peak memory=       230 mb
 output: output/rram.sp.sw0
 sweep: dc dc9908 begin, #sweeps= 101 cpu clock=  1.97E+01
 sweep: dc dc9908 end,  cpu clock=  1.97E+01 peak memory=       230 mb
 output: output/rram.sp.sw0
 sweep: dc dc9909 begin, #sweeps= 101 cpu clock=  1.97E+01
 sweep: dc dc9909 end,  cpu clock=  1.97E+01 peak memory=       230 mb
 output: output/rram.sp.sw0
 sweep: dc dc9910 begin, #sweeps= 101 cpu clock=  1.97E+01
 sweep: dc dc9910 end,  cpu clock=  1.97E+01 peak memory=       230 mb
 output: output/rram.sp.sw0
 sweep: dc dc9911 begin, #sweeps= 101 cpu clock=  1.97E+01
 sweep: dc dc9911 end,  cpu clock=  1.97E+01 peak memory=       230 mb
 output: output/rram.sp.sw0
 sweep: dc dc9912 begin, #sweeps= 101 cpu clock=  1.97E+01
 sweep: dc dc9912 end,  cpu clock=  1.97E+01 peak memory=       230 mb
 output: output/rram.sp.sw0
 sweep: dc dc9913 begin, #sweeps= 101 cpu clock=  1.97E+01
 sweep: dc dc9913 end,  cpu clock=  1.97E+01 peak memory=       230 mb
 output: output/rram.sp.sw0
 sweep: dc dc9914 begin, #sweeps= 101 cpu clock=  1.97E+01
 sweep: dc dc9914 end,  cpu clock=  1.98E+01 peak memory=       230 mb
 output: output/rram.sp.sw0
 sweep: dc dc9915 begin, #sweeps= 101 cpu clock=  1.98E+01
 sweep: dc dc9915 end,  cpu clock=  1.98E+01 peak memory=       230 mb
 output: output/rram.sp.sw0
 sweep: dc dc9916 begin, #sweeps= 101 cpu clock=  1.98E+01
 sweep: dc dc9916 end,  cpu clock=  1.98E+01 peak memory=       230 mb
 output: output/rram.sp.sw0
 sweep: dc dc9917 begin, #sweeps= 101 cpu clock=  1.98E+01
 sweep: dc dc9917 end,  cpu clock=  1.98E+01 peak memory=       230 mb
 output: output/rram.sp.sw0
 sweep: dc dc9918 begin, #sweeps= 101 cpu clock=  1.98E+01
 sweep: dc dc9918 end,  cpu clock=  1.98E+01 peak memory=       230 mb
 output: output/rram.sp.sw0
 sweep: dc dc9919 begin, #sweeps= 101 cpu clock=  1.98E+01
 sweep: dc dc9919 end,  cpu clock=  1.98E+01 peak memory=       230 mb
 output: output/rram.sp.sw0
 sweep: dc dc9920 begin, #sweeps= 101 cpu clock=  1.98E+01
 sweep: dc dc9920 end,  cpu clock=  1.98E+01 peak memory=       230 mb
 output: output/rram.sp.sw0
 sweep: dc dc9921 begin, #sweeps= 101 cpu clock=  1.98E+01
 sweep: dc dc9921 end,  cpu clock=  1.98E+01 peak memory=       230 mb
 output: output/rram.sp.sw0
 sweep: dc dc9922 begin, #sweeps= 101 cpu clock=  1.98E+01
 sweep: dc dc9922 end,  cpu clock=  1.98E+01 peak memory=       230 mb
 output: output/rram.sp.sw0
 sweep: dc dc9923 begin, #sweeps= 101 cpu clock=  1.98E+01
 sweep: dc dc9923 end,  cpu clock=  1.98E+01 peak memory=       230 mb
 output: output/rram.sp.sw0
 sweep: dc dc9924 begin, #sweeps= 101 cpu clock=  1.98E+01
 sweep: dc dc9924 end,  cpu clock=  1.98E+01 peak memory=       230 mb
 output: output/rram.sp.sw0
 sweep: dc dc9925 begin, #sweeps= 101 cpu clock=  1.98E+01
 sweep: dc dc9925 end,  cpu clock=  1.98E+01 peak memory=       230 mb
 output: output/rram.sp.sw0
 sweep: dc dc9926 begin, #sweeps= 101 cpu clock=  1.98E+01
 sweep: dc dc9926 end,  cpu clock=  1.98E+01 peak memory=       230 mb
 output: output/rram.sp.sw0
 sweep: dc dc9927 begin, #sweeps= 101 cpu clock=  1.98E+01
 sweep: dc dc9927 end,  cpu clock=  1.98E+01 peak memory=       230 mb
 output: output/rram.sp.sw0
 sweep: dc dc9928 begin, #sweeps= 101 cpu clock=  1.98E+01
 sweep: dc dc9928 end,  cpu clock=  1.98E+01 peak memory=       230 mb
 output: output/rram.sp.sw0
 sweep: dc dc9929 begin, #sweeps= 101 cpu clock=  1.98E+01
 sweep: dc dc9929 end,  cpu clock=  1.98E+01 peak memory=       230 mb
 output: output/rram.sp.sw0
 sweep: dc dc9930 begin, #sweeps= 101 cpu clock=  1.98E+01
 sweep: dc dc9930 end,  cpu clock=  1.98E+01 peak memory=       230 mb
 output: output/rram.sp.sw0
 sweep: dc dc9931 begin, #sweeps= 101 cpu clock=  1.98E+01
 sweep: dc dc9931 end,  cpu clock=  1.98E+01 peak memory=       230 mb
 output: output/rram.sp.sw0
 sweep: dc dc9932 begin, #sweeps= 101 cpu clock=  1.98E+01
 sweep: dc dc9932 end,  cpu clock=  1.98E+01 peak memory=       230 mb
 output: output/rram.sp.sw0
 sweep: dc dc9933 begin, #sweeps= 101 cpu clock=  1.98E+01
 sweep: dc dc9933 end,  cpu clock=  1.98E+01 peak memory=       230 mb
 output: output/rram.sp.sw0
 sweep: dc dc9934 begin, #sweeps= 101 cpu clock=  1.98E+01
 sweep: dc dc9934 end,  cpu clock=  1.98E+01 peak memory=       230 mb
 output: output/rram.sp.sw0
 sweep: dc dc9935 begin, #sweeps= 101 cpu clock=  1.98E+01
 sweep: dc dc9935 end,  cpu clock=  1.98E+01 peak memory=       230 mb
 output: output/rram.sp.sw0
 sweep: dc dc9936 begin, #sweeps= 101 cpu clock=  1.98E+01
 sweep: dc dc9936 end,  cpu clock=  1.98E+01 peak memory=       230 mb
 output: output/rram.sp.sw0
 sweep: dc dc9937 begin, #sweeps= 101 cpu clock=  1.98E+01
 sweep: dc dc9937 end,  cpu clock=  1.98E+01 peak memory=       230 mb
 output: output/rram.sp.sw0
 sweep: dc dc9938 begin, #sweeps= 101 cpu clock=  1.98E+01
 sweep: dc dc9938 end,  cpu clock=  1.98E+01 peak memory=       230 mb
 output: output/rram.sp.sw0
 sweep: dc dc9939 begin, #sweeps= 101 cpu clock=  1.98E+01
 sweep: dc dc9939 end,  cpu clock=  1.98E+01 peak memory=       230 mb
 output: output/rram.sp.sw0
 sweep: dc dc9940 begin, #sweeps= 101 cpu clock=  1.98E+01
 sweep: dc dc9940 end,  cpu clock=  1.98E+01 peak memory=       230 mb
 output: output/rram.sp.sw0
 sweep: dc dc9941 begin, #sweeps= 101 cpu clock=  1.98E+01
 sweep: dc dc9941 end,  cpu clock=  1.98E+01 peak memory=       230 mb
 output: output/rram.sp.sw0
 sweep: dc dc9942 begin, #sweeps= 101 cpu clock=  1.98E+01
 sweep: dc dc9942 end,  cpu clock=  1.98E+01 peak memory=       230 mb
 output: output/rram.sp.sw0
 sweep: dc dc9943 begin, #sweeps= 101 cpu clock=  1.98E+01
 sweep: dc dc9943 end,  cpu clock=  1.98E+01 peak memory=       230 mb
 output: output/rram.sp.sw0
 sweep: dc dc9944 begin, #sweeps= 101 cpu clock=  1.98E+01
 sweep: dc dc9944 end,  cpu clock=  1.98E+01 peak memory=       230 mb
 output: output/rram.sp.sw0
 sweep: dc dc9945 begin, #sweeps= 101 cpu clock=  1.98E+01
 sweep: dc dc9945 end,  cpu clock=  1.98E+01 peak memory=       230 mb
 output: output/rram.sp.sw0
 sweep: dc dc9946 begin, #sweeps= 101 cpu clock=  1.98E+01
 sweep: dc dc9946 end,  cpu clock=  1.98E+01 peak memory=       230 mb
 output: output/rram.sp.sw0
 sweep: dc dc9947 begin, #sweeps= 101 cpu clock=  1.98E+01
 sweep: dc dc9947 end,  cpu clock=  1.98E+01 peak memory=       230 mb
 output: output/rram.sp.sw0
 sweep: dc dc9948 begin, #sweeps= 101 cpu clock=  1.98E+01
 sweep: dc dc9948 end,  cpu clock=  1.98E+01 peak memory=       230 mb
 output: output/rram.sp.sw0
 sweep: dc dc9949 begin, #sweeps= 101 cpu clock=  1.98E+01
 sweep: dc dc9949 end,  cpu clock=  1.98E+01 peak memory=       230 mb
 output: output/rram.sp.sw0
 sweep: dc dc9950 begin, #sweeps= 101 cpu clock=  1.98E+01
 sweep: dc dc9950 end,  cpu clock=  1.98E+01 peak memory=       230 mb
 output: output/rram.sp.sw0
 sweep: dc dc9951 begin, #sweeps= 101 cpu clock=  1.98E+01
 sweep: dc dc9951 end,  cpu clock=  1.98E+01 peak memory=       230 mb
 output: output/rram.sp.sw0
 sweep: dc dc9952 begin, #sweeps= 101 cpu clock=  1.98E+01
 sweep: dc dc9952 end,  cpu clock=  1.98E+01 peak memory=       230 mb
 output: output/rram.sp.sw0
 sweep: dc dc9953 begin, #sweeps= 101 cpu clock=  1.98E+01
 sweep: dc dc9953 end,  cpu clock=  1.98E+01 peak memory=       230 mb
 output: output/rram.sp.sw0
 sweep: dc dc9954 begin, #sweeps= 101 cpu clock=  1.98E+01
 sweep: dc dc9954 end,  cpu clock=  1.98E+01 peak memory=       230 mb
 output: output/rram.sp.sw0
 sweep: dc dc9955 begin, #sweeps= 101 cpu clock=  1.98E+01
 sweep: dc dc9955 end,  cpu clock=  1.98E+01 peak memory=       230 mb
 output: output/rram.sp.sw0
 sweep: dc dc9956 begin, #sweeps= 101 cpu clock=  1.98E+01
 sweep: dc dc9956 end,  cpu clock=  1.98E+01 peak memory=       230 mb
 output: output/rram.sp.sw0
 sweep: dc dc9957 begin, #sweeps= 101 cpu clock=  1.98E+01
 sweep: dc dc9957 end,  cpu clock=  1.98E+01 peak memory=       230 mb
 output: output/rram.sp.sw0
 sweep: dc dc9958 begin, #sweeps= 101 cpu clock=  1.98E+01
 sweep: dc dc9958 end,  cpu clock=  1.98E+01 peak memory=       230 mb
 output: output/rram.sp.sw0
 sweep: dc dc9959 begin, #sweeps= 101 cpu clock=  1.98E+01
 sweep: dc dc9959 end,  cpu clock=  1.98E+01 peak memory=       230 mb
 output: output/rram.sp.sw0
 sweep: dc dc9960 begin, #sweeps= 101 cpu clock=  1.98E+01
 sweep: dc dc9960 end,  cpu clock=  1.98E+01 peak memory=       230 mb
 output: output/rram.sp.sw0
 sweep: dc dc9961 begin, #sweeps= 101 cpu clock=  1.98E+01
 sweep: dc dc9961 end,  cpu clock=  1.98E+01 peak memory=       230 mb
 output: output/rram.sp.sw0
 sweep: dc dc9962 begin, #sweeps= 101 cpu clock=  1.98E+01
 sweep: dc dc9962 end,  cpu clock=  1.98E+01 peak memory=       230 mb
 output: output/rram.sp.sw0
 sweep: dc dc9963 begin, #sweeps= 101 cpu clock=  1.98E+01
 sweep: dc dc9963 end,  cpu clock=  1.98E+01 peak memory=       230 mb
 output: output/rram.sp.sw0
 sweep: dc dc9964 begin, #sweeps= 101 cpu clock=  1.98E+01
 sweep: dc dc9964 end,  cpu clock=  1.98E+01 peak memory=       230 mb
 output: output/rram.sp.sw0
 sweep: dc dc9965 begin, #sweeps= 101 cpu clock=  1.98E+01
 sweep: dc dc9965 end,  cpu clock=  1.98E+01 peak memory=       230 mb
 output: output/rram.sp.sw0
 sweep: dc dc9966 begin, #sweeps= 101 cpu clock=  1.98E+01
 sweep: dc dc9966 end,  cpu clock=  1.98E+01 peak memory=       230 mb
 output: output/rram.sp.sw0
 sweep: dc dc9967 begin, #sweeps= 101 cpu clock=  1.98E+01
 sweep: dc dc9967 end,  cpu clock=  1.99E+01 peak memory=       230 mb
 output: output/rram.sp.sw0
 sweep: dc dc9968 begin, #sweeps= 101 cpu clock=  1.99E+01
 sweep: dc dc9968 end,  cpu clock=  1.99E+01 peak memory=       230 mb
 output: output/rram.sp.sw0
 sweep: dc dc9969 begin, #sweeps= 101 cpu clock=  1.99E+01
 sweep: dc dc9969 end,  cpu clock=  1.99E+01 peak memory=       230 mb
 output: output/rram.sp.sw0
 sweep: dc dc9970 begin, #sweeps= 101 cpu clock=  1.99E+01
 sweep: dc dc9970 end,  cpu clock=  1.99E+01 peak memory=       230 mb
 output: output/rram.sp.sw0
 sweep: dc dc9971 begin, #sweeps= 101 cpu clock=  1.99E+01
 sweep: dc dc9971 end,  cpu clock=  1.99E+01 peak memory=       230 mb
 output: output/rram.sp.sw0
 sweep: dc dc9972 begin, #sweeps= 101 cpu clock=  1.99E+01
 sweep: dc dc9972 end,  cpu clock=  1.99E+01 peak memory=       230 mb
 output: output/rram.sp.sw0
 sweep: dc dc9973 begin, #sweeps= 101 cpu clock=  1.99E+01
 sweep: dc dc9973 end,  cpu clock=  1.99E+01 peak memory=       230 mb
 output: output/rram.sp.sw0
 sweep: dc dc9974 begin, #sweeps= 101 cpu clock=  1.99E+01
 sweep: dc dc9974 end,  cpu clock=  1.99E+01 peak memory=       230 mb
 output: output/rram.sp.sw0
 sweep: dc dc9975 begin, #sweeps= 101 cpu clock=  1.99E+01
 sweep: dc dc9975 end,  cpu clock=  1.99E+01 peak memory=       230 mb
 output: output/rram.sp.sw0
 sweep: dc dc9976 begin, #sweeps= 101 cpu clock=  1.99E+01
 sweep: dc dc9976 end,  cpu clock=  1.99E+01 peak memory=       230 mb
 output: output/rram.sp.sw0
 sweep: dc dc9977 begin, #sweeps= 101 cpu clock=  1.99E+01
 sweep: dc dc9977 end,  cpu clock=  1.99E+01 peak memory=       230 mb
 output: output/rram.sp.sw0
 sweep: dc dc9978 begin, #sweeps= 101 cpu clock=  1.99E+01
 sweep: dc dc9978 end,  cpu clock=  1.99E+01 peak memory=       230 mb
 output: output/rram.sp.sw0
 sweep: dc dc9979 begin, #sweeps= 101 cpu clock=  1.99E+01
 sweep: dc dc9979 end,  cpu clock=  1.99E+01 peak memory=       230 mb
 output: output/rram.sp.sw0
 sweep: dc dc9980 begin, #sweeps= 101 cpu clock=  1.99E+01
 sweep: dc dc9980 end,  cpu clock=  1.99E+01 peak memory=       230 mb
 output: output/rram.sp.sw0
 sweep: dc dc9981 begin, #sweeps= 101 cpu clock=  1.99E+01
 sweep: dc dc9981 end,  cpu clock=  1.99E+01 peak memory=       230 mb
 output: output/rram.sp.sw0
 sweep: dc dc9982 begin, #sweeps= 101 cpu clock=  1.99E+01
 sweep: dc dc9982 end,  cpu clock=  1.99E+01 peak memory=       230 mb
 output: output/rram.sp.sw0
 sweep: dc dc9983 begin, #sweeps= 101 cpu clock=  1.99E+01
 sweep: dc dc9983 end,  cpu clock=  1.99E+01 peak memory=       230 mb
 output: output/rram.sp.sw0
 sweep: dc dc9984 begin, #sweeps= 101 cpu clock=  1.99E+01
 sweep: dc dc9984 end,  cpu clock=  1.99E+01 peak memory=       230 mb
 output: output/rram.sp.sw0
 sweep: dc dc9985 begin, #sweeps= 101 cpu clock=  1.99E+01
 sweep: dc dc9985 end,  cpu clock=  1.99E+01 peak memory=       230 mb
 output: output/rram.sp.sw0
 sweep: dc dc9986 begin, #sweeps= 101 cpu clock=  1.99E+01
 sweep: dc dc9986 end,  cpu clock=  1.99E+01 peak memory=       230 mb
 output: output/rram.sp.sw0
 sweep: dc dc9987 begin, #sweeps= 101 cpu clock=  1.99E+01
 sweep: dc dc9987 end,  cpu clock=  1.99E+01 peak memory=       230 mb
 output: output/rram.sp.sw0
 sweep: dc dc9988 begin, #sweeps= 101 cpu clock=  1.99E+01
 sweep: dc dc9988 end,  cpu clock=  1.99E+01 peak memory=       230 mb
 output: output/rram.sp.sw0
 sweep: dc dc9989 begin, #sweeps= 101 cpu clock=  1.99E+01
 sweep: dc dc9989 end,  cpu clock=  1.99E+01 peak memory=       230 mb
 output: output/rram.sp.sw0
 sweep: dc dc9990 begin, #sweeps= 101 cpu clock=  1.99E+01
 sweep: dc dc9990 end,  cpu clock=  1.99E+01 peak memory=       230 mb
 output: output/rram.sp.sw0
 sweep: dc dc9991 begin, #sweeps= 101 cpu clock=  1.99E+01
 sweep: dc dc9991 end,  cpu clock=  1.99E+01 peak memory=       230 mb
 output: output/rram.sp.sw0
 sweep: dc dc9992 begin, #sweeps= 101 cpu clock=  1.99E+01
 sweep: dc dc9992 end,  cpu clock=  1.99E+01 peak memory=       230 mb
 output: output/rram.sp.sw0
 sweep: dc dc9993 begin, #sweeps= 101 cpu clock=  1.99E+01
 sweep: dc dc9993 end,  cpu clock=  1.99E+01 peak memory=       230 mb
 output: output/rram.sp.sw0
 sweep: dc dc9994 begin, #sweeps= 101 cpu clock=  1.99E+01
 sweep: dc dc9994 end,  cpu clock=  1.99E+01 peak memory=       230 mb
 output: output/rram.sp.sw0
 sweep: dc dc9995 begin, #sweeps= 101 cpu clock=  1.99E+01
 sweep: dc dc9995 end,  cpu clock=  1.99E+01 peak memory=       230 mb
 output: output/rram.sp.sw0
 sweep: dc dc9996 begin, #sweeps= 101 cpu clock=  1.99E+01
 sweep: dc dc9996 end,  cpu clock=  1.99E+01 peak memory=       230 mb
 output: output/rram.sp.sw0
 sweep: dc dc9997 begin, #sweeps= 101 cpu clock=  1.99E+01
 sweep: dc dc9997 end,  cpu clock=  1.99E+01 peak memory=       230 mb
 output: output/rram.sp.sw0
 sweep: dc dc9998 begin, #sweeps= 101 cpu clock=  1.99E+01
 sweep: dc dc9998 end,  cpu clock=  1.99E+01 peak memory=       230 mb
 output: output/rram.sp.sw0
 sweep: dc dc9999 begin, #sweeps= 101 cpu clock=  1.99E+01
 sweep: dc dc9999 end,  cpu clock=  1.99E+01 peak memory=       230 mb
 output: output/rram.sp.sw0
 sweep: dc dc9999 begin, #sweeps= 101 cpu clock=  1.99E+01
 sweep: dc dc9999 end,  cpu clock=  1.99E+01 peak memory=       230 mb
 sweep: monte_carlo     monte_carlo     1 end
>info:         ***** hspice job concluded
 lic: Release hspice token(s)
