 ****** HSPICE -- L-2016.06-SP1 linux64 (Aug 24 2016) ******                    
  Copyright (c) 1986 - 2021 by Synopsys, Inc. All Rights Reserved.              
  This software and the associated documentation are proprietary
  to Synopsys, Inc. This software may only be used in accordance
  with the terms and conditions of a written license agreement with
  Synopsys, Inc. All other use, reproduction, or distribution of
  this software is strictly prohibited.
  Input File: testbench/rram.sp                                                 
  Command line options: /usr/_synopsys/hspice/hspice/linux64/hspice -i testbench/rram.sp -o output/rram.lis
 lic:  
 lic: FLEXlm: v11.2.1 
 lic: USER:   jun                  HOSTNAME: DTFL-workstation 
 lic: HOSTID: "3cecef285064"       PID:      123360 
 lic: Using FLEXlm license file: 
 lic: 27000@DTFL-workstation 
 lic: Checkout 1 hspice 
 lic: License/Maintenance for hspice will expire on 12-dec-2030/2019.2019 
 lic: 1(in_use)/99(total) FLOATING license(s) on SERVER 27000@DTFL-workstation 
 lic:   
  **info** Monte Carlo simulation is detected, increase number of measure digits to 7 for Monte Carlo post processing.
1****** HSPICE -- L-2016.06-SP1 linux64 (Aug 24 2016) ******                    
 ******  
 * here we use hfox, which has 1e8 hrs and 1e4 lrs

 ****** circuit name directory
 circuit number to circuit name directory
   number circuitname                     definition         multiplier
        0 main circuit
        1 xrram.                          rram               1.00 
 ******  
 * here we use hfox, which has 1e8 hrs and 1e4 lrs

 ****** diode model parameters tnom=  25.000 temp=  25.000 ******
 ********************************************************
 *** common model parameters model name:   1:diode1  ****
 ********************************************************

     names  values   units     names  values   units     names  values   units
     -----  ------   -----     -----  ------   -----     -----  ------   -----

   1*** dc breakdown parameters ***
       vb=   0.    volts        ibv=   1.00m amps   

   2*** parasitic resistance parameters ***
       rs=   0.    ohms   

   3*** capacitance parameters ***
       fc= 500.00m              fcs= 500.00m                m= 500.00m        
     mjsw= 330.00m               pb= 800.00m volts        php= 800.00m volts  
       tt=   0.    secs         cjo=   0.    f/area       cjp=   0.    f/pj   

   4*** temperature effect parameters ***
     tlev=   0.               tlevc=   0.                 tcv=   0.    v/deg k
      trs=   0.    /deg         cta=   0.    /deg         ctp=   0.    /deg   
      xti=   3.00            xtitun=   3.00               keg=   1.00         
       eg=   1.11  ev          gap1= 702.00u  ev/deg     gap2=   1.11k  deg   
     ttt1=   0.    /deg        ttt2=   0.    /deg2        tm1=   0.    /deg   
      tm2=   0.    /deg2        tpb=   0.    v/deg k     tphp=   0.    v/deg k
     tref=  25.00   deg c 

   5*** noise parameters ***
       kf=   0.                  af=   1.00         

   ***  level   1  model parameters  ***

    level=   1.00                is=  10.00f amps         jsw=   0.    amps   
        n=   1.00               nbv=   1.00                ik=   0.    amp    
     area=   1.00                pj=   0.                 ikr=   0.    amp    
    expli=   0.    amps      explir=   0.    amps        jtun=   0.    amps   
   jtunsw=   0.    amps        ntun=  30.00         
  
*** info *** index=1 is a nominal sample in Monte Carlo.
*** info *** The MCG Random Number Generator and .Option Use_Agauss_Format = Yes are set as defaults starting with HSPICE L-2016.06 to address the needs of advanced technology nodes with large samples and/or large circuits, particularly for distributed processing.
*** Should you want backward compatibility, please use the following options:
For traditional Gaussian style variations, use .Option Random_Generator = 3LC;
For Variation Block style variations, use .Option Random_Generator = MOA.
  
      
 *****************************************************************
 ******  option summary
 ******
 runlvl  = 3         bypass  = 2.0000    
  Opening plot unit= 15
 file=output/rram.pa0

*** ERROR *** in routine Sanity_Check_Generator
 Invalid m           0
 ******
 * here we use hfox, which has 1e8 hrs and 1e4 lrs

 ****** dc transfer curves tnom=  25.000 temp=  25.000 ******
 
   *** monte carlo  index = 1 ***
x

 volt         current   
             vdc        
    0.          0.      
   10.00000m  -14.7584f 
   20.00000m  -31.7811f 
   30.00000m  -52.1454f 
   40.00000m  -77.4416f 
   50.00000m -110.0163f 
   60.00000m -153.3330f 
   70.00000m -212.5031f 
   80.00000m -295.0705f 
   90.00000m -412.1684f 
  100.00000m -580.2280f 
  110.00000m -823.4989f 
  120.00000m   -1.1778p 
  130.00000m   -1.6959p 
  140.00000m   -2.4557p 
  150.00000m   -3.5724p 
  160.00000m   -5.2157p 
  170.00000m   -7.6361p 
  180.00000m  -11.2035p 
  190.00000m  -16.4637p 
  200.00000m  -24.2221p 
  210.00000m  -35.6675p 
  220.00000m  -52.5540p 
  230.00000m  -77.4708p 
  240.00000m -114.2383p 
  250.00000m -168.4946p 
  260.00000m -248.5595p 
  270.00000m -366.7087p 
  280.00000m -541.0536p 
  290.00000m -798.3112p 
  300.00000m   -1.1779n 
  310.00000m   -1.7379n 
  320.00000m   -2.5639n 
  330.00000m   -3.7819n 
  340.00000m   -5.5775n 
  350.00000m   -8.2228n 
  360.00000m  -12.1171n 
  370.00000m  -17.8429n 
  380.00000m  -26.2472n 
  390.00000m  -38.5514n 
  400.00000m  -56.4996n 
  410.00000m  -82.5433n 
  420.00000m -120.0549n 
  430.00000m -173.5320n 
  440.00000m -248.7193n 
  450.00000m -352.5334n 
  460.00000m -492.6654n 
  470.00000m -676.8066n 
  480.00000m -911.6164n 
  490.00000m   -1.2017u 
  500.00000m   -1.5492u 
  510.00000m   -1.9535u 
  520.00000m   -2.4119u 
  530.00000m   -2.9204u 
  540.00000m   -3.4743u 
  550.00000m   -4.0686u 
  560.00000m   -4.6986u 
  570.00000m   -5.3602u 
  580.00000m   -6.0494u 
  590.00000m   -6.7630u 
  600.00000m   -7.4979u 
  610.00000m   -8.2518u 
  620.00000m   -9.0224u 
  630.00000m   -9.8079u 
  640.00000m  -10.6068u 
  650.00000m  -11.4175u 
  660.00000m  -12.2390u 
  670.00000m  -13.0702u 
  680.00000m  -13.9102u 
  690.00000m  -14.7582u 
  700.00000m  -15.6134u 
  710.00000m  -16.4754u 
  720.00000m  -17.3434u 
  730.00000m  -18.2172u 
  740.00000m  -19.0961u 
  750.00000m  -19.9799u 
  760.00000m  -20.8681u 
  770.00000m  -21.7605u 
  780.00000m  -22.6568u 
  790.00000m  -23.5568u 
  800.00000m  -24.4601u 
  810.00000m  -25.3666u 
  820.00000m  -26.2761u 
  830.00000m  -27.1884u 
  840.00000m  -28.1034u 
  850.00000m  -29.0208u 
  860.00000m  -29.9407u 
  870.00000m  -30.8627u 
  880.00000m  -31.7869u 
  890.00000m  -32.7131u 
  900.00000m  -33.6413u 
  910.00000m  -34.5712u 
  920.00000m  -35.5029u 
  930.00000m  -36.4362u 
  940.00000m  -37.3711u 
  950.00000m  -38.3075u 
  960.00000m  -39.2454u 
  970.00000m  -40.1846u 
  980.00000m  -41.1252u 
  990.00000m  -42.0670u 
    1.00000   -43.0101u 
y
 
   *** monte carlo  index = 2 ***
x

 volt         current   
             vdc        
    0.          0.      
   10.00000m  -14.7584f 
   20.00000m  -31.7811f 
   30.00000m  -52.1454f 
   40.00000m  -77.4416f 
   50.00000m -110.0163f 
   60.00000m -153.3330f 
   70.00000m -212.5031f 
   80.00000m -295.0705f 
   90.00000m -412.1684f 
  100.00000m -580.2280f 
  110.00000m -823.4989f 
  120.00000m   -1.1778p 
  130.00000m   -1.6959p 
  140.00000m   -2.4557p 
  150.00000m   -3.5724p 
  160.00000m   -5.2157p 
  170.00000m   -7.6361p 
  180.00000m  -11.2035p 
  190.00000m  -16.4637p 
  200.00000m  -24.2221p 
  210.00000m  -35.6675p 
  220.00000m  -52.5540p 
  230.00000m  -77.4708p 
  240.00000m -114.2383p 
  250.00000m -168.4946p 
  260.00000m -248.5595p 
  270.00000m -366.7087p 
  280.00000m -541.0536p 
  290.00000m -798.3112p 
  300.00000m   -1.1779n 
  310.00000m   -1.7379n 
  320.00000m   -2.5639n 
  330.00000m   -3.7819n 
  340.00000m   -5.5775n 
  350.00000m   -8.2228n 
  360.00000m  -12.1171n 
  370.00000m  -17.8429n 
  380.00000m  -26.2472n 
  390.00000m  -38.5514n 
  400.00000m  -56.4996n 
  410.00000m  -82.5433n 
  420.00000m -120.0549n 
  430.00000m -173.5320n 
  440.00000m -248.7193n 
  450.00000m -352.5334n 
  460.00000m -492.6654n 
  470.00000m -676.8066n 
  480.00000m -911.6164n 
  490.00000m   -1.2017u 
  500.00000m   -1.5492u 
  510.00000m   -1.9535u 
  520.00000m   -2.4119u 
  530.00000m   -2.9204u 
  540.00000m   -3.4743u 
  550.00000m   -4.0686u 
  560.00000m   -4.6986u 
  570.00000m   -5.3602u 
  580.00000m   -6.0494u 
  590.00000m   -6.7630u 
  600.00000m   -7.4979u 
  610.00000m   -8.2518u 
  620.00000m   -9.0224u 
  630.00000m   -9.8079u 
  640.00000m  -10.6068u 
  650.00000m  -11.4175u 
  660.00000m  -12.2390u 
  670.00000m  -13.0702u 
  680.00000m  -13.9102u 
  690.00000m  -14.7582u 
  700.00000m  -15.6134u 
  710.00000m  -16.4754u 
  720.00000m  -17.3434u 
  730.00000m  -18.2172u 
  740.00000m  -19.0961u 
  750.00000m  -19.9799u 
  760.00000m  -20.8681u 
  770.00000m  -21.7605u 
  780.00000m  -22.6568u 
  790.00000m  -23.5568u 
  800.00000m  -24.4601u 
  810.00000m  -25.3666u 
  820.00000m  -26.2761u 
  830.00000m  -27.1884u 
  840.00000m  -28.1034u 
  850.00000m  -29.0208u 
  860.00000m  -29.9407u 
  870.00000m  -30.8627u 
  880.00000m  -31.7869u 
  890.00000m  -32.7131u 
  900.00000m  -33.6413u 
  910.00000m  -34.5712u 
  920.00000m  -35.5029u 
  930.00000m  -36.4362u 
  940.00000m  -37.3711u 
  950.00000m  -38.3075u 
  960.00000m  -39.2454u 
  970.00000m  -40.1846u 
  980.00000m  -41.1252u 
  990.00000m  -42.0670u 
    1.00000   -43.0101u 
y
 
   *** monte carlo  index = 3 ***
x

 volt         current   
             vdc        
    0.          0.      
   10.00000m  -14.7584f 
   20.00000m  -31.7811f 
   30.00000m  -52.1454f 
   40.00000m  -77.4416f 
   50.00000m -110.0163f 
   60.00000m -153.3330f 
   70.00000m -212.5031f 
   80.00000m -295.0705f 
   90.00000m -412.1684f 
  100.00000m -580.2280f 
  110.00000m -823.4989f 
  120.00000m   -1.1778p 
  130.00000m   -1.6959p 
  140.00000m   -2.4557p 
  150.00000m   -3.5724p 
  160.00000m   -5.2157p 
  170.00000m   -7.6361p 
  180.00000m  -11.2035p 
  190.00000m  -16.4637p 
  200.00000m  -24.2221p 
  210.00000m  -35.6675p 
  220.00000m  -52.5540p 
  230.00000m  -77.4708p 
  240.00000m -114.2383p 
  250.00000m -168.4946p 
  260.00000m -248.5595p 
  270.00000m -366.7087p 
  280.00000m -541.0536p 
  290.00000m -798.3112p 
  300.00000m   -1.1779n 
  310.00000m   -1.7379n 
  320.00000m   -2.5639n 
  330.00000m   -3.7819n 
  340.00000m   -5.5775n 
  350.00000m   -8.2228n 
  360.00000m  -12.1171n 
  370.00000m  -17.8429n 
  380.00000m  -26.2472n 
  390.00000m  -38.5514n 
  400.00000m  -56.4996n 
  410.00000m  -82.5433n 
  420.00000m -120.0549n 
  430.00000m -173.5320n 
  440.00000m -248.7193n 
  450.00000m -352.5334n 
  460.00000m -492.6654n 
  470.00000m -676.8066n 
  480.00000m -911.6164n 
  490.00000m   -1.2017u 
  500.00000m   -1.5492u 
  510.00000m   -1.9535u 
  520.00000m   -2.4119u 
  530.00000m   -2.9204u 
  540.00000m   -3.4743u 
  550.00000m   -4.0686u 
  560.00000m   -4.6986u 
  570.00000m   -5.3602u 
  580.00000m   -6.0494u 
  590.00000m   -6.7630u 
  600.00000m   -7.4979u 
  610.00000m   -8.2518u 
  620.00000m   -9.0224u 
  630.00000m   -9.8079u 
  640.00000m  -10.6068u 
  650.00000m  -11.4175u 
  660.00000m  -12.2390u 
  670.00000m  -13.0702u 
  680.00000m  -13.9102u 
  690.00000m  -14.7582u 
  700.00000m  -15.6134u 
  710.00000m  -16.4754u 
  720.00000m  -17.3434u 
  730.00000m  -18.2172u 
  740.00000m  -19.0961u 
  750.00000m  -19.9799u 
  760.00000m  -20.8681u 
  770.00000m  -21.7605u 
  780.00000m  -22.6568u 
  790.00000m  -23.5568u 
  800.00000m  -24.4601u 
  810.00000m  -25.3666u 
  820.00000m  -26.2761u 
  830.00000m  -27.1884u 
  840.00000m  -28.1034u 
  850.00000m  -29.0208u 
  860.00000m  -29.9407u 
  870.00000m  -30.8627u 
  880.00000m  -31.7869u 
  890.00000m  -32.7131u 
  900.00000m  -33.6413u 
  910.00000m  -34.5712u 
  920.00000m  -35.5029u 
  930.00000m  -36.4362u 
  940.00000m  -37.3711u 
  950.00000m  -38.3075u 
  960.00000m  -39.2454u 
  970.00000m  -40.1846u 
  980.00000m  -41.1252u 
  990.00000m  -42.0670u 
    1.00000   -43.0101u 
y
 
   *** monte carlo  index = 4 ***
x

 volt         current   
             vdc        
    0.          0.      
   10.00000m  -14.7584f 
   20.00000m  -31.7811f 
   30.00000m  -52.1454f 
   40.00000m  -77.4416f 
   50.00000m -110.0163f 
   60.00000m -153.3330f 
   70.00000m -212.5031f 
   80.00000m -295.0705f 
   90.00000m -412.1684f 
  100.00000m -580.2280f 
  110.00000m -823.4989f 
  120.00000m   -1.1778p 
  130.00000m   -1.6959p 
  140.00000m   -2.4557p 
  150.00000m   -3.5724p 
  160.00000m   -5.2157p 
  170.00000m   -7.6361p 
  180.00000m  -11.2035p 
  190.00000m  -16.4637p 
  200.00000m  -24.2221p 
  210.00000m  -35.6675p 
  220.00000m  -52.5540p 
  230.00000m  -77.4708p 
  240.00000m -114.2383p 
  250.00000m -168.4946p 
  260.00000m -248.5595p 
  270.00000m -366.7087p 
  280.00000m -541.0536p 
  290.00000m -798.3112p 
  300.00000m   -1.1779n 
  310.00000m   -1.7379n 
  320.00000m   -2.5639n 
  330.00000m   -3.7819n 
  340.00000m   -5.5775n 
  350.00000m   -8.2228n 
  360.00000m  -12.1171n 
  370.00000m  -17.8429n 
  380.00000m  -26.2472n 
  390.00000m  -38.5514n 
  400.00000m  -56.4996n 
  410.00000m  -82.5433n 
  420.00000m -120.0549n 
  430.00000m -173.5320n 
  440.00000m -248.7193n 
  450.00000m -352.5334n 
  460.00000m -492.6654n 
  470.00000m -676.8066n 
  480.00000m -911.6164n 
  490.00000m   -1.2017u 
  500.00000m   -1.5492u 
  510.00000m   -1.9535u 
  520.00000m   -2.4119u 
  530.00000m   -2.9204u 
  540.00000m   -3.4743u 
  550.00000m   -4.0686u 
  560.00000m   -4.6986u 
  570.00000m   -5.3602u 
  580.00000m   -6.0494u 
  590.00000m   -6.7630u 
  600.00000m   -7.4979u 
  610.00000m   -8.2518u 
  620.00000m   -9.0224u 
  630.00000m   -9.8079u 
  640.00000m  -10.6068u 
  650.00000m  -11.4175u 
  660.00000m  -12.2390u 
  670.00000m  -13.0702u 
  680.00000m  -13.9102u 
  690.00000m  -14.7582u 
  700.00000m  -15.6134u 
  710.00000m  -16.4754u 
  720.00000m  -17.3434u 
  730.00000m  -18.2172u 
  740.00000m  -19.0961u 
  750.00000m  -19.9799u 
  760.00000m  -20.8681u 
  770.00000m  -21.7605u 
  780.00000m  -22.6568u 
  790.00000m  -23.5568u 
  800.00000m  -24.4601u 
  810.00000m  -25.3666u 
  820.00000m  -26.2761u 
  830.00000m  -27.1884u 
  840.00000m  -28.1034u 
  850.00000m  -29.0208u 
  860.00000m  -29.9407u 
  870.00000m  -30.8627u 
  880.00000m  -31.7869u 
  890.00000m  -32.7131u 
  900.00000m  -33.6413u 
  910.00000m  -34.5712u 
  920.00000m  -35.5029u 
  930.00000m  -36.4362u 
  940.00000m  -37.3711u 
  950.00000m  -38.3075u 
  960.00000m  -39.2454u 
  970.00000m  -40.1846u 
  980.00000m  -41.1252u 
  990.00000m  -42.0670u 
    1.00000   -43.0101u 
y
 
   *** monte carlo  index = 5 ***
x

 volt         current   
             vdc        
    0.          0.      
   10.00000m  -14.7584f 
   20.00000m  -31.7811f 
   30.00000m  -52.1454f 
   40.00000m  -77.4416f 
   50.00000m -110.0163f 
   60.00000m -153.3330f 
   70.00000m -212.5031f 
   80.00000m -295.0705f 
   90.00000m -412.1684f 
  100.00000m -580.2280f 
  110.00000m -823.4989f 
  120.00000m   -1.1778p 
  130.00000m   -1.6959p 
  140.00000m   -2.4557p 
  150.00000m   -3.5724p 
  160.00000m   -5.2157p 
  170.00000m   -7.6361p 
  180.00000m  -11.2035p 
  190.00000m  -16.4637p 
  200.00000m  -24.2221p 
  210.00000m  -35.6675p 
  220.00000m  -52.5540p 
  230.00000m  -77.4708p 
  240.00000m -114.2383p 
  250.00000m -168.4946p 
  260.00000m -248.5595p 
  270.00000m -366.7087p 
  280.00000m -541.0536p 
  290.00000m -798.3112p 
  300.00000m   -1.1779n 
  310.00000m   -1.7379n 
  320.00000m   -2.5639n 
  330.00000m   -3.7819n 
  340.00000m   -5.5775n 
  350.00000m   -8.2228n 
  360.00000m  -12.1171n 
  370.00000m  -17.8429n 
  380.00000m  -26.2472n 
  390.00000m  -38.5514n 
  400.00000m  -56.4996n 
  410.00000m  -82.5433n 
  420.00000m -120.0549n 
  430.00000m -173.5320n 
  440.00000m -248.7193n 
  450.00000m -352.5334n 
  460.00000m -492.6654n 
  470.00000m -676.8066n 
  480.00000m -911.6164n 
  490.00000m   -1.2017u 
  500.00000m   -1.5492u 
  510.00000m   -1.9535u 
  520.00000m   -2.4119u 
  530.00000m   -2.9204u 
  540.00000m   -3.4743u 
  550.00000m   -4.0686u 
  560.00000m   -4.6986u 
  570.00000m   -5.3602u 
  580.00000m   -6.0494u 
  590.00000m   -6.7630u 
  600.00000m   -7.4979u 
  610.00000m   -8.2518u 
  620.00000m   -9.0224u 
  630.00000m   -9.8079u 
  640.00000m  -10.6068u 
  650.00000m  -11.4175u 
  660.00000m  -12.2390u 
  670.00000m  -13.0702u 
  680.00000m  -13.9102u 
  690.00000m  -14.7582u 
  700.00000m  -15.6134u 
  710.00000m  -16.4754u 
  720.00000m  -17.3434u 
  730.00000m  -18.2172u 
  740.00000m  -19.0961u 
  750.00000m  -19.9799u 
  760.00000m  -20.8681u 
  770.00000m  -21.7605u 
  780.00000m  -22.6568u 
  790.00000m  -23.5568u 
  800.00000m  -24.4601u 
  810.00000m  -25.3666u 
  820.00000m  -26.2761u 
  830.00000m  -27.1884u 
  840.00000m  -28.1034u 
  850.00000m  -29.0208u 
  860.00000m  -29.9407u 
  870.00000m  -30.8627u 
  880.00000m  -31.7869u 
  890.00000m  -32.7131u 
  900.00000m  -33.6413u 
  910.00000m  -34.5712u 
  920.00000m  -35.5029u 
  930.00000m  -36.4362u 
  940.00000m  -37.3711u 
  950.00000m  -38.3075u 
  960.00000m  -39.2454u 
  970.00000m  -40.1846u 
  980.00000m  -41.1252u 
  990.00000m  -42.0670u 
    1.00000   -43.0101u 
y
 
   *** monte carlo  index = 6 ***
x

 volt         current   
             vdc        
    0.          0.      
   10.00000m  -14.7584f 
   20.00000m  -31.7811f 
   30.00000m  -52.1454f 
   40.00000m  -77.4416f 
   50.00000m -110.0163f 
   60.00000m -153.3330f 
   70.00000m -212.5031f 
   80.00000m -295.0705f 
   90.00000m -412.1684f 
  100.00000m -580.2280f 
  110.00000m -823.4989f 
  120.00000m   -1.1778p 
  130.00000m   -1.6959p 
  140.00000m   -2.4557p 
  150.00000m   -3.5724p 
  160.00000m   -5.2157p 
  170.00000m   -7.6361p 
  180.00000m  -11.2035p 
  190.00000m  -16.4637p 
  200.00000m  -24.2221p 
  210.00000m  -35.6675p 
  220.00000m  -52.5540p 
  230.00000m  -77.4708p 
  240.00000m -114.2383p 
  250.00000m -168.4946p 
  260.00000m -248.5595p 
  270.00000m -366.7087p 
  280.00000m -541.0536p 
  290.00000m -798.3112p 
  300.00000m   -1.1779n 
  310.00000m   -1.7379n 
  320.00000m   -2.5639n 
  330.00000m   -3.7819n 
  340.00000m   -5.5775n 
  350.00000m   -8.2228n 
  360.00000m  -12.1171n 
  370.00000m  -17.8429n 
  380.00000m  -26.2472n 
  390.00000m  -38.5514n 
  400.00000m  -56.4996n 
  410.00000m  -82.5433n 
  420.00000m -120.0549n 
  430.00000m -173.5320n 
  440.00000m -248.7193n 
  450.00000m -352.5334n 
  460.00000m -492.6654n 
  470.00000m -676.8066n 
  480.00000m -911.6164n 
  490.00000m   -1.2017u 
  500.00000m   -1.5492u 
  510.00000m   -1.9535u 
  520.00000m   -2.4119u 
  530.00000m   -2.9204u 
  540.00000m   -3.4743u 
  550.00000m   -4.0686u 
  560.00000m   -4.6986u 
  570.00000m   -5.3602u 
  580.00000m   -6.0494u 
  590.00000m   -6.7630u 
  600.00000m   -7.4979u 
  610.00000m   -8.2518u 
  620.00000m   -9.0224u 
  630.00000m   -9.8079u 
  640.00000m  -10.6068u 
  650.00000m  -11.4175u 
  660.00000m  -12.2390u 
  670.00000m  -13.0702u 
  680.00000m  -13.9102u 
  690.00000m  -14.7582u 
  700.00000m  -15.6134u 
  710.00000m  -16.4754u 
  720.00000m  -17.3434u 
  730.00000m  -18.2172u 
  740.00000m  -19.0961u 
  750.00000m  -19.9799u 
  760.00000m  -20.8681u 
  770.00000m  -21.7605u 
  780.00000m  -22.6568u 
  790.00000m  -23.5568u 
  800.00000m  -24.4601u 
  810.00000m  -25.3666u 
  820.00000m  -26.2761u 
  830.00000m  -27.1884u 
  840.00000m  -28.1034u 
  850.00000m  -29.0208u 
  860.00000m  -29.9407u 
  870.00000m  -30.8627u 
  880.00000m  -31.7869u 
  890.00000m  -32.7131u 
  900.00000m  -33.6413u 
  910.00000m  -34.5712u 
  920.00000m  -35.5029u 
  930.00000m  -36.4362u 
  940.00000m  -37.3711u 
  950.00000m  -38.3075u 
  960.00000m  -39.2454u 
  970.00000m  -40.1846u 
  980.00000m  -41.1252u 
  990.00000m  -42.0670u 
    1.00000   -43.0101u 
y
 
   *** monte carlo  index = 7 ***
x

 volt         current   
             vdc        
    0.          0.      
   10.00000m  -14.7584f 
   20.00000m  -31.7811f 
   30.00000m  -52.1454f 
   40.00000m  -77.4416f 
   50.00000m -110.0163f 
   60.00000m -153.3330f 
   70.00000m -212.5031f 
   80.00000m -295.0705f 
   90.00000m -412.1684f 
  100.00000m -580.2280f 
  110.00000m -823.4989f 
  120.00000m   -1.1778p 
  130.00000m   -1.6959p 
  140.00000m   -2.4557p 
  150.00000m   -3.5724p 
  160.00000m   -5.2157p 
  170.00000m   -7.6361p 
  180.00000m  -11.2035p 
  190.00000m  -16.4637p 
  200.00000m  -24.2221p 
  210.00000m  -35.6675p 
  220.00000m  -52.5540p 
  230.00000m  -77.4708p 
  240.00000m -114.2383p 
  250.00000m -168.4946p 
  260.00000m -248.5595p 
  270.00000m -366.7087p 
  280.00000m -541.0536p 
  290.00000m -798.3112p 
  300.00000m   -1.1779n 
  310.00000m   -1.7379n 
  320.00000m   -2.5639n 
  330.00000m   -3.7819n 
  340.00000m   -5.5775n 
  350.00000m   -8.2228n 
  360.00000m  -12.1171n 
  370.00000m  -17.8429n 
  380.00000m  -26.2472n 
  390.00000m  -38.5514n 
  400.00000m  -56.4996n 
  410.00000m  -82.5433n 
  420.00000m -120.0549n 
  430.00000m -173.5320n 
  440.00000m -248.7193n 
  450.00000m -352.5334n 
  460.00000m -492.6654n 
  470.00000m -676.8066n 
  480.00000m -911.6164n 
  490.00000m   -1.2017u 
  500.00000m   -1.5492u 
  510.00000m   -1.9535u 
  520.00000m   -2.4119u 
  530.00000m   -2.9204u 
  540.00000m   -3.4743u 
  550.00000m   -4.0686u 
  560.00000m   -4.6986u 
  570.00000m   -5.3602u 
  580.00000m   -6.0494u 
  590.00000m   -6.7630u 
  600.00000m   -7.4979u 
  610.00000m   -8.2518u 
  620.00000m   -9.0224u 
  630.00000m   -9.8079u 
  640.00000m  -10.6068u 
  650.00000m  -11.4175u 
  660.00000m  -12.2390u 
  670.00000m  -13.0702u 
  680.00000m  -13.9102u 
  690.00000m  -14.7582u 
  700.00000m  -15.6134u 
  710.00000m  -16.4754u 
  720.00000m  -17.3434u 
  730.00000m  -18.2172u 
  740.00000m  -19.0961u 
  750.00000m  -19.9799u 
  760.00000m  -20.8681u 
  770.00000m  -21.7605u 
  780.00000m  -22.6568u 
  790.00000m  -23.5568u 
  800.00000m  -24.4601u 
  810.00000m  -25.3666u 
  820.00000m  -26.2761u 
  830.00000m  -27.1884u 
  840.00000m  -28.1034u 
  850.00000m  -29.0208u 
  860.00000m  -29.9407u 
  870.00000m  -30.8627u 
  880.00000m  -31.7869u 
  890.00000m  -32.7131u 
  900.00000m  -33.6413u 
  910.00000m  -34.5712u 
  920.00000m  -35.5029u 
  930.00000m  -36.4362u 
  940.00000m  -37.3711u 
  950.00000m  -38.3075u 
  960.00000m  -39.2454u 
  970.00000m  -40.1846u 
  980.00000m  -41.1252u 
  990.00000m  -42.0670u 
    1.00000   -43.0101u 
y
 
   *** monte carlo  index = 8 ***
x

 volt         current   
             vdc        
    0.          0.      
   10.00000m  -14.7584f 
   20.00000m  -31.7811f 
   30.00000m  -52.1454f 
   40.00000m  -77.4416f 
   50.00000m -110.0163f 
   60.00000m -153.3330f 
   70.00000m -212.5031f 
   80.00000m -295.0705f 
   90.00000m -412.1684f 
  100.00000m -580.2280f 
  110.00000m -823.4989f 
  120.00000m   -1.1778p 
  130.00000m   -1.6959p 
  140.00000m   -2.4557p 
  150.00000m   -3.5724p 
  160.00000m   -5.2157p 
  170.00000m   -7.6361p 
  180.00000m  -11.2035p 
  190.00000m  -16.4637p 
  200.00000m  -24.2221p 
  210.00000m  -35.6675p 
  220.00000m  -52.5540p 
  230.00000m  -77.4708p 
  240.00000m -114.2383p 
  250.00000m -168.4946p 
  260.00000m -248.5595p 
  270.00000m -366.7087p 
  280.00000m -541.0536p 
  290.00000m -798.3112p 
  300.00000m   -1.1779n 
  310.00000m   -1.7379n 
  320.00000m   -2.5639n 
  330.00000m   -3.7819n 
  340.00000m   -5.5775n 
  350.00000m   -8.2228n 
  360.00000m  -12.1171n 
  370.00000m  -17.8429n 
  380.00000m  -26.2472n 
  390.00000m  -38.5514n 
  400.00000m  -56.4996n 
  410.00000m  -82.5433n 
  420.00000m -120.0549n 
  430.00000m -173.5320n 
  440.00000m -248.7193n 
  450.00000m -352.5334n 
  460.00000m -492.6654n 
  470.00000m -676.8066n 
  480.00000m -911.6164n 
  490.00000m   -1.2017u 
  500.00000m   -1.5492u 
  510.00000m   -1.9535u 
  520.00000m   -2.4119u 
  530.00000m   -2.9204u 
  540.00000m   -3.4743u 
  550.00000m   -4.0686u 
  560.00000m   -4.6986u 
  570.00000m   -5.3602u 
  580.00000m   -6.0494u 
  590.00000m   -6.7630u 
  600.00000m   -7.4979u 
  610.00000m   -8.2518u 
  620.00000m   -9.0224u 
  630.00000m   -9.8079u 
  640.00000m  -10.6068u 
  650.00000m  -11.4175u 
  660.00000m  -12.2390u 
  670.00000m  -13.0702u 
  680.00000m  -13.9102u 
  690.00000m  -14.7582u 
  700.00000m  -15.6134u 
  710.00000m  -16.4754u 
  720.00000m  -17.3434u 
  730.00000m  -18.2172u 
  740.00000m  -19.0961u 
  750.00000m  -19.9799u 
  760.00000m  -20.8681u 
  770.00000m  -21.7605u 
  780.00000m  -22.6568u 
  790.00000m  -23.5568u 
  800.00000m  -24.4601u 
  810.00000m  -25.3666u 
  820.00000m  -26.2761u 
  830.00000m  -27.1884u 
  840.00000m  -28.1034u 
  850.00000m  -29.0208u 
  860.00000m  -29.9407u 
  870.00000m  -30.8627u 
  880.00000m  -31.7869u 
  890.00000m  -32.7131u 
  900.00000m  -33.6413u 
  910.00000m  -34.5712u 
  920.00000m  -35.5029u 
  930.00000m  -36.4362u 
  940.00000m  -37.3711u 
  950.00000m  -38.3075u 
  960.00000m  -39.2454u 
  970.00000m  -40.1846u 
  980.00000m  -41.1252u 
  990.00000m  -42.0670u 
    1.00000   -43.0101u 
y

          ***** job concluded
 ******  
 * here we use hfox, which has 1e8 hrs and 1e4 lrs

 ****** job statistics summary tnom=  25.000 temp=  25.000 ******
  
  
 ******  Machine Information  ******
 CPU:
 model name	: Intel(R) Xeon(R) Silver 4210R CPU @ 2.40GHz
 cpu MHz	: 1040.478
  
 OS:
 Linux version 3.10.0-1160.25.1.el7.x86_64 (mockbuild@kbuilder.bsys.centos.org) (gcc version 4.8.5 20150623 (Red Hat 4.8.5-44) (GCC) ) #1 SMP Wed Apr 28 21:49:45 UTC 2021


  ******  HSPICE Threads Information  ******

  Command Line Threads Count :     1
  Available CPU Count        :    40
  Actual Threads Count       :     1


  ******  Circuit Statistics  ******
  # nodes       =       4 # elements   =       4
  # resistors   =       1 # capacitors =       0 # inductors   =       0
  # mutual_inds =       0 # vccs       =       0 # vcvs        =       0
  # cccs        =       0 # ccvs       =       0 # volt_srcs   =       2
  # curr_srcs   =       0 # diodes     =       1 # bjts        =       0
  # jfets       =       0 # mosfets    =       0 # U elements  =       0
  # T elements  =       0 # W elements =       0 # B elements  =       0
  # S elements  =       0 # P elements =       0 # va device   =       0
  # vector_srcs =       0 # N elements =       0


  ******  Runtime Statistics (seconds)  ******

  analysis           time    # points   tot. iter  conv.iter
  op point           0.00           1           0
  dc sweep           0.05         808        1801
  readin             0.01
  errchk             0.00
  setup              0.00
  output             0.00


           peak memory used        236.50 megabytes
           total cpu time            0.08 seconds
           total elapsed time        0.19 seconds
           job started at     17:21:45 06/20/2021
           job ended   at     17:21:46 06/20/2021


 lic: Release hspice token(s) 
 lic: total license checkout elapse time:        0.14(s)
